
These predictions were generated by FAST (v6.01, 12-Aug-2005) on 20-Dec-2013 at 13:37:52.
The aerodynamic calculations were made by AeroDyn (12.58, 28-Jun-2005).

 NREL 5.0 MW Baseline Wind Turbine for Use in Offshore Analysis.

    Time	TTDspFA	TTDspSS	TTDspAx	TipDxb1	TipDyb1	TipDxb2	TipDyb2	TipDxb3	TipDyb3	LSSTipPxa
   (sec)	(m)	(m)	(m)	(m)	(m)	(m)	(m)	(m)	(m)	(deg)
   0.100	-5.306E-05	-1.507E-04	 0.000E+00	 2.150E-01	 1.960E-02	 9.792E-02	-4.833E-02	 9.450E-02	 1.209E-01	 5.721E+00
   0.200	 1.291E-03	-8.909E-04	 0.000E+00	 7.522E-01	-7.606E-03	 4.189E-01	-2.349E-01	 3.658E-01	 3.667E-01	 1.144E+01
   0.300	 7.004E-03	-2.112E-03	 0.000E+00	 1.526E+00	-9.393E-02	 9.985E-01	-4.683E-01	 8.164E-01	 6.388E-01	 1.717E+01
   0.400	 1.854E-02	-3.498E-03	 0.000E+00	 2.347E+00	-2.359E-01	 1.690E+00	-6.448E-01	 1.330E+00	 8.111E-01	 2.292E+01
   0.500	 3.599E-02	-4.485E-03	-7.629E-06	 3.008E+00	-4.021E-01	 2.247E+00	-6.756E-01	 1.752E+00	 8.113E-01	 2.868E+01
   0.600	 5.960E-02	-4.583E-03	-3.052E-05	 3.449E+00	-5.252E-01	 2.575E+00	-5.030E-01	 2.066E+00	 6.684E-01	 3.449E+01
   0.700	 8.971E-02	-4.019E-03	-6.104E-05	 3.721E+00	-6.088E-01	 2.767E+00	-2.280E-01	 2.353E+00	 4.053E-01	 4.033E+01
   0.800	 1.262E-01	-3.442E-03	-1.221E-04	 3.908E+00	-6.308E-01	 2.914E+00	 4.296E-02	 2.700E+00	 1.342E-01	 4.622E+01
   0.900	 1.681E-01	-3.793E-03	-2.136E-04	 4.036E+00	-6.224E-01	 3.028E+00	 1.889E-01	 3.087E+00	-5.600E-02	 5.216E+01
   1.000	 2.135E-01	-5.739E-03	-3.510E-04	 4.126E+00	-6.295E-01	 3.092E+00	 1.404E-01	 3.464E+00	-1.205E-01	 5.812E+01
   1.100	 2.609E-01	-9.251E-03	-5.188E-04	 4.240E+00	-6.406E-01	 3.143E+00	-3.865E-02	 3.821E+00	-3.191E-02	 6.413E+01
   1.200	 3.093E-01	-1.350E-02	-7.248E-04	 4.412E+00	-6.718E-01	 3.249E+00	-2.536E-01	 4.182E+00	 1.378E-01	 7.020E+01
   1.300	 3.578E-01	-1.702E-02	-9.689E-04	 4.615E+00	-7.167E-01	 3.438E+00	-3.810E-01	 4.531E+00	 2.884E-01	 7.632E+01
   1.400	 4.047E-01	-1.852E-02	-1.244E-03	 4.768E+00	-7.570E-01	 3.655E+00	-3.442E-01	 4.809E+00	 3.259E-01	 8.252E+01
   1.500	 4.481E-01	-1.766E-02	-1.518E-03	 4.844E+00	-7.992E-01	 3.796E+00	-1.623E-01	 4.983E+00	 1.889E-01	 8.876E+01
   1.600	 4.867E-01	-1.506E-02	-1.793E-03	 4.889E+00	-8.276E-01	 3.809E+00	 1.083E-01	 5.105E+00	-8.565E-02	 9.505E+01
   1.700	 5.194E-01	-1.218E-02	-2.045E-03	 4.920E+00	-8.332E-01	 3.729E+00	 3.572E-01	 5.232E+00	-4.031E-01	 1.014E+02
   1.800	 5.445E-01	-1.055E-02	-2.243E-03	 4.893E+00	-7.876E-01	 3.604E+00	 5.027E-01	 5.386E+00	-6.286E-01	 1.078E+02
   1.900	 5.607E-01	-1.089E-02	-2.373E-03	 4.774E+00	-6.871E-01	 3.492E+00	 5.110E-01	 5.541E+00	-6.745E-01	 1.143E+02
   2.000	 5.672E-01	-1.283E-02	-2.434E-03	 4.600E+00	-5.872E-01	 3.447E+00	 3.741E-01	 5.661E+00	-5.723E-01	 1.208E+02
   2.100	 5.636E-01	-1.517E-02	-2.411E-03	 4.416E+00	-5.135E-01	 3.502E+00	 1.662E-01	 5.718E+00	-3.939E-01	 1.274E+02
   2.200	 5.505E-01	-1.670E-02	-2.296E-03	 4.302E+00	-4.928E-01	 3.680E+00	-1.906E-02	 5.701E+00	-2.497E-01	 1.340E+02
   2.300	 5.289E-01	-1.667E-02	-2.121E-03	 4.269E+00	-5.077E-01	 3.968E+00	-8.962E-02	 5.627E+00	-2.204E-01	 1.407E+02
   2.400	 5.003E-01	-1.518E-02	-1.900E-03	 4.252E+00	-5.096E-01	 4.307E+00	-1.363E-03	 5.512E+00	-3.198E-01	 1.475E+02
   2.500	 4.658E-01	-1.299E-02	-1.648E-03	 4.210E+00	-4.696E-01	 4.601E+00	 2.011E-01	 5.372E+00	-5.136E-01	 1.544E+02
   2.600	 4.271E-01	-1.079E-02	-1.373E-03	 4.134E+00	-3.807E-01	 4.796E+00	 4.177E-01	 5.242E+00	-7.329E-01	 1.613E+02
   2.700	 3.859E-01	-8.997E-03	-1.129E-03	 4.054E+00	-2.732E-01	 4.891E+00	 5.240E-01	 5.143E+00	-9.133E-01	 1.682E+02
   2.800	 3.438E-01	-7.631E-03	-9.003E-04	 3.944E+00	-1.645E-01	 4.935E+00	 4.599E-01	 5.103E+00	-9.853E-01	 1.753E+02
   2.900	 3.023E-01	-6.459E-03	-6.943E-04	 3.791E+00	-6.008E-02	 4.977E+00	 2.512E-01	 5.099E+00	-9.169E-01	 1.824E+02
   3.000	 2.631E-01	-5.336E-03	-5.264E-04	 3.641E+00	 3.093E-02	 5.028E+00	-1.684E-02	 5.065E+00	-7.393E-01	 1.896E+02
   3.100	 2.278E-01	-4.456E-03	-3.967E-04	 3.500E+00	 1.082E-01	 5.061E+00	-2.304E-01	 4.924E+00	-5.234E-01	 1.968E+02
   3.200	 1.979E-01	-4.306E-03	-3.052E-04	 3.401E+00	 1.484E-01	 5.060E+00	-3.264E-01	 4.703E+00	-3.792E-01	 2.041E+02
   3.300	 1.748E-01	-5.333E-03	-2.365E-04	 3.350E+00	 1.612E-01	 5.022E+00	-2.846E-01	 4.472E+00	-3.720E-01	 2.115E+02
   3.400	 1.591E-01	-7.641E-03	-1.984E-04	 3.333E+00	 1.540E-01	 4.934E+00	-1.580E-01	 4.268E+00	-5.095E-01	 2.189E+02
   3.500	 1.506E-01	-1.070E-02	-1.755E-04	 3.328E+00	 1.670E-01	 4.795E+00	-7.941E-03	 4.064E+00	-6.949E-01	 2.264E+02
   3.600	 1.490E-01	-1.352E-02	-1.678E-04	 3.336E+00	 2.255E-01	 4.620E+00	 8.986E-02	 3.845E+00	-8.149E-01	 2.339E+02
   3.700	 1.543E-01	-1.505E-02	-1.831E-04	 3.357E+00	 3.147E-01	 4.418E+00	 6.498E-02	 3.672E+00	-8.077E-01	 2.416E+02
   3.800	 1.657E-01	-1.487E-02	-2.136E-04	 3.347E+00	 4.042E-01	 4.216E+00	-9.298E-02	 3.540E+00	-6.597E-01	 2.492E+02
   3.900	 1.822E-01	-1.342E-02	-2.518E-04	 3.278E+00	 4.549E-01	 4.048E+00	-3.387E-01	 3.421E+00	-4.258E-01	 2.569E+02
   4.000	 2.026E-01	-1.178E-02	-3.128E-04	 3.164E+00	 4.538E-01	 3.937E+00	-5.790E-01	 3.284E+00	-1.847E-01	 2.647E+02
   4.100	 2.257E-01	-1.111E-02	-3.815E-04	 3.047E+00	 4.097E-01	 3.876E+00	-7.207E-01	 3.146E+00	-1.730E-02	 2.725E+02
   4.200	 2.499E-01	-1.200E-02	-4.730E-04	 2.968E+00	 3.537E-01	 3.832E+00	-7.061E-01	 3.025E+00	 3.953E-02	 2.804E+02
   4.300	 2.737E-01	-1.409E-02	-5.646E-04	 2.914E+00	 3.126E-01	 3.765E+00	-5.576E-01	 2.907E+00	-6.873E-03	 2.883E+02
   4.400	 2.957E-01	-1.629E-02	-6.638E-04	 2.852E+00	 2.912E-01	 3.655E+00	-3.689E-01	 2.771E+00	-1.114E-01	 2.963E+02
   4.500	 3.150E-01	-1.742E-02	-7.553E-04	 2.787E+00	 2.817E-01	 3.501E+00	-2.418E-01	 2.623E+00	-2.003E-01	 3.043E+02
   4.600	 3.305E-01	-1.689E-02	-8.316E-04	 2.742E+00	 2.733E-01	 3.324E+00	-2.409E-01	 2.445E+00	-2.031E-01	 3.123E+02
   4.700	 3.411E-01	-1.486E-02	-8.774E-04	 2.708E+00	 2.604E-01	 3.166E+00	-3.649E-01	 2.231E+00	-7.997E-02	 3.204E+02
   4.800	 3.459E-01	-1.206E-02	-9.003E-04	 2.674E+00	 2.345E-01	 3.007E+00	-5.512E-01	 2.019E+00	 1.477E-01	 3.285E+02
   4.900	 3.439E-01	-9.305E-03	-8.926E-04	 2.640E+00	 1.917E-01	 2.854E+00	-7.116E-01	 1.828E+00	 4.086E-01	 3.366E+02
   5.000	 3.346E-01	-7.043E-03	-8.392E-04	 2.608E+00	 1.184E-01	 2.716E+00	-7.764E-01	 1.662E+00	 6.055E-01	 3.448E+02
   5.100	 3.180E-01	-5.091E-03	-7.553E-04	 2.584E+00	 1.180E-02	 2.560E+00	-7.185E-01	 1.545E+00	 6.679E-01	 3.530E+02
   5.200	 2.946E-01	-3.091E-03	-6.561E-04	 2.584E+00	-1.069E-01	 2.392E+00	-5.467E-01	 1.490E+00	 5.964E-01	 1.264E+00
   5.300	 2.656E-01	-8.671E-04	-5.341E-04	 2.624E+00	-2.095E-01	 2.187E+00	-3.140E-01	 1.486E+00	 4.460E-01	 9.526E+00
   5.400	 2.320E-01	 1.406E-03	-4.044E-04	 2.665E+00	-2.718E-01	 1.929E+00	-9.591E-02	 1.528E+00	 3.014E-01	 1.782E+01
   5.500	 1.953E-01	 3.130E-03	-2.899E-04	 2.641E+00	-2.980E-01	 1.649E+00	 3.353E-02	 1.592E+00	 2.292E-01	 2.615E+01
   5.600	 1.569E-01	 3.690E-03	-1.907E-04	 2.550E+00	-3.028E-01	 1.350E+00	 4.708E-02	 1.628E+00	 2.661E-01	 3.450E+01
   5.700	 1.182E-01	 2.889E-03	-1.068E-04	 2.452E+00	-3.190E-01	 1.089E+00	-3.713E-02	 1.620E+00	 3.819E-01	 4.287E+01
   5.800	 8.044E-02	 1.187E-03	-5.341E-05	 2.352E+00	-3.687E-01	 8.618E-01	-1.523E-01	 1.596E+00	 5.121E-01	 5.126E+01
   5.900	 4.475E-02	-5.714E-04	-1.526E-05	 2.175E+00	-4.313E-01	 6.724E-01	-1.974E-01	 1.569E+00	 6.019E-01	 5.966E+01
   6.000	 1.196E-02	-1.568E-03	 0.000E+00	 1.894E+00	-4.905E-01	 5.363E-01	-1.222E-01	 1.526E+00	 5.971E-01	 6.809E+01
   6.100	-1.696E-02	-1.514E-03	 0.000E+00	 1.587E+00	-5.251E-01	 4.442E-01	 7.396E-02	 1.429E+00	 4.880E-01	 7.655E+01
   6.200	-4.118E-02	-8.358E-04	-1.526E-05	 1.345E+00	-5.378E-01	 3.854E-01	 3.180E-01	 1.329E+00	 2.882E-01	 8.501E+01
   6.300	-6.026E-02	-4.351E-04	-3.052E-05	 1.149E+00	-5.215E-01	 3.402E-01	 5.255E-01	 1.296E+00	 6.120E-02	 9.348E+01
   6.400	-7.418E-02	-1.150E-03	-3.815E-05	 9.532E-01	-4.732E-01	 2.888E-01	 6.307E-01	 1.288E+00	-1.129E-01	 1.020E+02
   6.500	-8.294E-02	-3.294E-03	-5.341E-05	 7.834E-01	-4.031E-01	 2.372E-01	 6.118E-01	 1.236E+00	-1.802E-01	 1.104E+02
   6.600	-8.617E-02	-6.527E-03	-5.341E-05	 6.575E-01	-3.255E-01	 2.100E-01	 5.065E-01	 1.131E+00	-1.325E-01	 1.189E+02
   6.700	-8.370E-02	-1.002E-02	-5.341E-05	 5.758E-01	-2.623E-01	 2.071E-01	 3.720E-01	 1.017E+00	-2.852E-02	 1.274E+02
   6.800	-7.585E-02	-1.286E-02	-4.578E-05	 5.159E-01	-2.319E-01	 2.083E-01	 2.739E-01	 9.464E-01	 4.802E-02	 1.359E+02
   6.900	-6.324E-02	-1.455E-02	-3.052E-05	 4.760E-01	-2.220E-01	 1.929E-01	 2.657E-01	 8.859E-01	 4.004E-02	 1.444E+02
   7.000	-4.665E-02	-1.516E-02	-1.526E-05	 4.733E-01	-2.163E-01	 1.733E-01	 3.499E-01	 8.147E-01	-7.511E-02	 1.529E+02
   7.100	-2.706E-02	-1.512E-02	-7.629E-06	 4.634E-01	-1.855E-01	 1.649E-01	 4.923E-01	 7.312E-01	-2.618E-01	 1.614E+02
   7.200	-5.761E-03	-1.481E-02	 0.000E+00	 4.330E-01	-1.149E-01	 1.478E-01	 6.278E-01	 6.512E-01	-4.498E-01	 1.699E+02
   7.300	 1.593E-02	-1.421E-02	 0.000E+00	 4.143E-01	-1.570E-02	 9.175E-02	 6.892E-01	 5.946E-01	-5.825E-01	 1.785E+02
   7.400	 3.665E-02	-1.295E-02	-7.629E-06	 3.846E-01	 9.461E-02	 1.174E-02	 6.322E-01	 5.608E-01	-6.229E-01	 1.870E+02
   7.500	 5.506E-02	-1.069E-02	-2.289E-05	 3.044E-01	 1.915E-01	-4.270E-02	 4.659E-01	 5.279E-01	-5.636E-01	 1.955E+02
   7.600	 7.034E-02	-7.492E-03	-3.815E-05	 1.651E-01	 2.633E-01	-3.242E-02	 2.484E-01	 4.789E-01	-4.362E-01	 2.040E+02
   7.700	 8.209E-02	-3.814E-03	-4.578E-05	-1.406E-02	 3.160E-01	 2.882E-02	 5.885E-02	 4.314E-01	-2.984E-01	 2.125E+02
   7.800	 8.980E-02	-3.120E-04	-6.104E-05	-1.754E-01	 3.479E-01	 9.105E-02	-4.637E-02	 3.845E-01	-2.158E-01	 2.210E+02
   7.900	 9.287E-02	 2.363E-03	-6.104E-05	-3.158E-01	 3.684E-01	 1.475E-01	-4.863E-02	 3.148E-01	-2.200E-01	 2.295E+02
   8.000	 9.098E-02	 3.996E-03	-6.104E-05	-4.657E-01	 3.951E-01	 2.148E-01	 2.108E-02	 2.300E-01	-2.999E-01	 2.380E+02
   8.100	 8.413E-02	 4.999E-03	-5.341E-05	-5.985E-01	 4.291E-01	 2.843E-01	 8.782E-02	 1.235E-01	-4.170E-01	 2.464E+02
   8.200	 7.263E-02	 6.108E-03	-3.815E-05	-6.795E-01	 4.762E-01	 3.149E-01	 9.895E-02	 3.320E-02	-4.945E-01	 2.549E+02
   8.300	 5.682E-02	 7.882E-03	-2.289E-05	-6.915E-01	 5.259E-01	 2.972E-01	 1.821E-02	-5.367E-02	-4.825E-01	 2.633E+02
   8.400	 3.722E-02	 1.036E-02	-7.629E-06	-6.607E-01	 5.708E-01	 2.461E-01	-1.363E-01	-1.727E-01	-3.511E-01	 2.718E+02
   8.500	 1.440E-02	 1.305E-02	 0.000E+00	-6.228E-01	 5.837E-01	 2.219E-01	-3.301E-01	-3.011E-01	-1.481E-01	 2.802E+02
   8.600	-1.084E-02	 1.516E-02	 0.000E+00	-5.736E-01	 5.506E-01	 2.137E-01	-5.055E-01	-4.367E-01	 5.838E-02	 2.887E+02
   8.700	-3.757E-02	 1.594E-02	-1.526E-05	-4.859E-01	 4.850E-01	 1.964E-01	-6.001E-01	-5.856E-01	 2.120E-01	 2.971E+02
   8.800	-6.481E-02	 1.513E-02	-3.052E-05	-3.794E-01	 3.973E-01	 1.557E-01	-5.976E-01	-7.264E-01	 2.695E-01	 3.055E+02
   8.900	-9.137E-02	 1.303E-02	-6.104E-05	-2.740E-01	 3.169E-01	 7.825E-02	-5.058E-01	-8.278E-01	 2.493E-01	 3.139E+02
   9.000	-1.161E-01	 1.018E-02	-9.918E-05	-1.856E-01	 2.531E-01	-3.130E-02	-3.823E-01	-8.924E-01	 1.910E-01	 3.222E+02
   9.100	-1.378E-01	 7.174E-03	-1.450E-04	-1.383E-01	 2.072E-01	-1.631E-01	-2.822E-01	-9.402E-01	 1.515E-01	 3.306E+02
   9.200	-1.555E-01	 4.332E-03	-1.831E-04	-1.281E-01	 1.720E-01	-2.962E-01	-2.486E-01	-9.684E-01	 1.700E-01	 3.389E+02
   9.300	-1.686E-01	 1.602E-03	-2.136E-04	-1.429E-01	 1.262E-01	-3.898E-01	-2.992E-01	-9.595E-01	 2.501E-01	 3.473E+02
   9.400	-1.765E-01	-1.247E-03	-2.365E-04	-1.932E-01	 7.017E-02	-4.503E-01	-3.921E-01	-9.375E-01	 3.840E-01	 3.556E+02
   9.500	-1.795E-01	-4.327E-03	-2.441E-04	-2.637E-01	 4.452E-03	-4.690E-01	-4.758E-01	-9.489E-01	 5.303E-01	 3.878E+00
   9.600	-1.777E-01	-7.423E-03	-2.441E-04	-3.161E-01	-7.199E-02	-4.690E-01	-5.034E-01	-1.003E+00	 6.391E-01	 1.216E+01
   9.700	-1.714E-01	-1.006E-02	-2.213E-04	-3.309E-01	-1.504E-01	-4.912E-01	-4.424E-01	-1.069E+00	 6.781E-01	 2.044E+01
   9.800	-1.607E-01	-1.178E-02	-1.984E-04	-3.190E-01	-2.325E-01	-5.266E-01	-3.099E-01	-1.108E+00	 6.271E-01	 2.870E+01
   9.900	-1.465E-01	-1.251E-02	-1.678E-04	-3.191E-01	-3.067E-01	-5.849E-01	-1.375E-01	-1.112E+00	 5.121E-01	 3.693E+01
  10.000	-1.295E-01	-1.260E-02	-1.297E-04	-3.013E-01	-3.608E-01	-6.756E-01	 3.087E-02	-1.093E+00	 3.879E-01	 4.516E+01
  10.100	-1.105E-01	-1.259E-02	-9.918E-05	-2.701E-01	-3.927E-01	-7.755E-01	 1.473E-01	-1.059E+00	 3.027E-01	 5.336E+01
  10.200	-9.055E-02	-1.279E-02	-6.866E-05	-2.692E-01	-4.051E-01	-8.507E-01	 1.891E-01	-1.002E+00	 2.867E-01	 6.155E+01
  10.300	-7.022E-02	-1.319E-02	-3.815E-05	-3.005E-01	-4.082E-01	-8.944E-01	 1.670E-01	-9.189E-01	 3.302E-01	 6.972E+01
  10.400	-5.028E-02	-1.335E-02	-2.289E-05	-3.434E-01	-4.155E-01	-9.031E-01	 1.165E-01	-8.160E-01	 3.900E-01	 7.787E+01
  10.500	-3.145E-02	-1.263E-02	-7.629E-06	-3.730E-01	-4.247E-01	-8.942E-01	 9.315E-02	-6.971E-01	 4.204E-01	 8.600E+01
  10.600	-1.434E-02	-1.055E-02	 0.000E+00	-3.856E-01	-4.381E-01	-8.741E-01	 1.311E-01	-5.758E-01	 3.813E-01	 9.411E+01
  10.700	 6.376E-04	-7.108E-03	 0.000E+00	-3.825E-01	-4.393E-01	-8.412E-01	 2.443E-01	-4.668E-01	 2.722E-01	 1.022E+02
  10.800	 1.309E-02	-2.788E-03	 0.000E+00	-3.836E-01	-4.223E-01	-7.879E-01	 3.996E-01	-3.663E-01	 1.175E-01	 1.103E+02
  10.900	 2.271E-02	 1.637E-03	 0.000E+00	-4.092E-01	-3.897E-01	-7.225E-01	 5.418E-01	-2.628E-01	-4.368E-02	 1.184E+02
  11.000	 2.917E-02	 5.484E-03	-7.629E-06	-4.225E-01	-3.465E-01	-6.709E-01	 6.266E-01	-1.735E-01	-1.676E-01	 1.264E+02
  11.100	 3.218E-02	 8.432E-03	-7.629E-06	-4.070E-01	-2.970E-01	-6.382E-01	 6.287E-01	-7.599E-02	-2.309E-01	 1.345E+02
  11.200	 3.163E-02	 1.060E-02	-7.629E-06	-4.198E-01	-2.406E-01	-5.991E-01	 5.601E-01	 2.964E-02	-2.328E-01	 1.425E+02
  11.300	 2.796E-02	 1.232E-02	-7.629E-06	-4.516E-01	-1.739E-01	-5.347E-01	 4.640E-01	 9.066E-02	-1.938E-01	 1.505E+02
  11.400	 2.183E-02	 1.385E-02	-7.629E-06	-4.629E-01	-1.101E-01	-4.403E-01	 3.786E-01	 8.334E-02	-1.647E-01	 1.585E+02
  11.500	 1.383E-02	 1.517E-02	 0.000E+00	-4.589E-01	-4.868E-02	-3.353E-01	 3.414E-01	 4.199E-02	-1.769E-01	 1.665E+02
  11.600	 4.325E-03	 1.596E-02	 0.000E+00	-4.763E-01	 5.121E-03	-2.361E-01	 3.559E-01	 1.331E-02	-2.441E-01	 1.745E+02
  11.700	-6.337E-03	 1.593E-02	 0.000E+00	-5.336E-01	 5.423E-02	-1.617E-01	 4.045E-01	 9.598E-05	-3.527E-01	 1.825E+02
  11.800	-1.763E-02	 1.502E-02	-7.629E-06	-6.017E-01	 1.103E-01	-1.128E-01	 4.569E-01	-2.388E-02	-4.654E-01	 1.905E+02
  11.900	-2.910E-02	 1.340E-02	-7.629E-06	-6.467E-01	 1.702E-01	-6.662E-02	 4.663E-01	-6.576E-02	-5.489E-01	 1.984E+02
  12.000	-4.045E-02	 1.142E-02	-1.526E-05	-6.775E-01	 2.402E-01	-3.652E-02	 4.147E-01	-1.087E-01	-5.684E-01	 2.064E+02
  12.100	-5.132E-02	 9.336E-03	-2.289E-05	-7.255E-01	 3.180E-01	-3.118E-02	 3.001E-01	-1.694E-01	-5.202E-01	 2.143E+02
  12.200	-6.128E-02	 7.208E-03	-3.052E-05	-7.696E-01	 3.899E-01	-4.679E-02	 1.444E-01	-2.270E-01	-4.309E-01	 2.223E+02
  12.300	-7.007E-02	 4.839E-03	-3.815E-05	-7.923E-01	 4.398E-01	-5.956E-02	-1.195E-02	-2.750E-01	-3.355E-01	 2.302E+02
  12.400	-7.743E-02	 1.880E-03	-4.578E-05	-7.923E-01	 4.684E-01	-6.592E-02	-1.205E-01	-3.450E-01	-2.621E-01	 2.381E+02
  12.500	-8.318E-02	-1.891E-03	-5.341E-05	-7.796E-01	 4.797E-01	-8.646E-02	-1.599E-01	-4.141E-01	-2.324E-01	 2.460E+02
  12.600	-8.718E-02	-6.273E-03	-6.104E-05	-7.727E-01	 4.813E-01	-1.133E-01	-1.411E-01	-4.524E-01	-2.451E-01	 2.539E+02
  12.700	-8.927E-02	-1.072E-02	-6.104E-05	-7.748E-01	 4.791E-01	-9.744E-02	-1.056E-01	-4.778E-01	-2.789E-01	 2.618E+02
  12.800	-8.933E-02	-1.454E-02	-6.104E-05	-7.747E-01	 4.821E-01	-8.255E-02	-9.208E-02	-5.117E-01	-2.915E-01	 2.697E+02
  12.900	-8.718E-02	-1.718E-02	-6.104E-05	-7.586E-01	 4.886E-01	-7.292E-02	-1.331E-01	-5.405E-01	-2.562E-01	 2.775E+02
  13.000	-8.287E-02	-1.847E-02	-5.341E-05	-7.258E-01	 4.892E-01	-7.161E-02	-2.381E-01	-5.633E-01	-1.682E-01	 2.854E+02
  13.100	-7.671E-02	-1.866E-02	-4.578E-05	-6.978E-01	 4.872E-01	-6.674E-02	-3.685E-01	-5.911E-01	-3.270E-02	 2.932E+02
  13.200	-6.914E-02	-1.817E-02	-3.815E-05	-6.785E-01	 4.707E-01	-7.920E-02	-4.870E-01	-6.284E-01	 1.095E-01	 3.010E+02
  13.300	-6.064E-02	-1.731E-02	-3.052E-05	-6.412E-01	 4.335E-01	-8.359E-02	-5.553E-01	-6.785E-01	 2.238E-01	 3.088E+02
  13.400	-5.166E-02	-1.620E-02	-2.289E-05	-5.971E-01	 3.729E-01	-6.094E-02	-5.567E-01	-7.465E-01	 2.842E-01	 3.166E+02
  13.500	-4.264E-02	-1.470E-02	-1.526E-05	-5.548E-01	 2.975E-01	-3.782E-02	-4.980E-01	-8.177E-01	 2.919E-01	 3.244E+02
  13.600	-3.383E-02	-1.260E-02	-7.629E-06	-5.073E-01	 2.222E-01	-3.593E-02	-4.063E-01	-8.793E-01	 2.759E-01	 3.322E+02
  13.700	-2.556E-02	-9.820E-03	-7.629E-06	-4.531E-01	 1.495E-01	-5.638E-02	-3.313E-01	-9.199E-01	 2.609E-01	 3.400E+02
  13.800	-1.826E-02	-6.508E-03	 0.000E+00	-4.045E-01	 9.346E-02	-8.841E-02	-2.939E-01	-9.384E-01	 2.820E-01	 3.477E+02
  13.900	-1.231E-02	-3.021E-03	 0.000E+00	-3.558E-01	 5.235E-02	-1.445E-01	-3.047E-01	-9.448E-01	 3.473E-01	 3.555E+02
  14.000	-7.880E-03	 3.724E-04	 0.000E+00	-2.980E-01	 1.490E-02	-2.024E-01	-3.489E-01	-9.468E-01	 4.422E-01	 3.187E+00
  14.100	-5.100E-03	 3.573E-03	 0.000E+00	-2.260E-01	-3.362E-02	-2.415E-01	-3.967E-01	-9.325E-01	 5.333E-01	 1.090E+01
  14.200	-4.060E-03	 6.623E-03	 0.000E+00	-1.469E-01	-9.397E-02	-2.803E-01	-4.056E-01	-9.046E-01	 5.945E-01	 1.860E+01
  14.300	-4.730E-03	 9.675E-03	 0.000E+00	-5.452E-02	-1.626E-01	-3.270E-01	-3.497E-01	-8.732E-01	 6.107E-01	 2.629E+01
  14.400	-6.908E-03	 1.276E-02	 0.000E+00	 1.688E-02	-2.396E-01	-3.816E-01	-2.368E-01	-8.315E-01	 5.757E-01	 3.397E+01
  14.500	-1.030E-02	 1.562E-02	 0.000E+00	 8.968E-02	-3.102E-01	-4.579E-01	-9.062E-02	-7.763E-01	 5.095E-01	 4.164E+01
  14.600	-1.460E-02	 1.781E-02	-7.629E-06	 1.745E-01	-3.674E-01	-5.358E-01	 4.644E-02	-7.106E-01	 4.367E-01	 4.930E+01
  14.700	-1.953E-02	 1.885E-02	-7.629E-06	 2.417E-01	-4.096E-01	-6.121E-01	 1.387E-01	-6.217E-01	 3.776E-01	 5.695E+01
  14.800	-2.490E-02	 1.848E-02	-7.629E-06	 2.667E-01	-4.325E-01	-6.943E-01	 1.785E-01	-5.174E-01	 3.508E-01	 6.458E+01
  14.900	-3.043E-02	 1.670E-02	-7.629E-06	 2.479E-01	-4.361E-01	-7.683E-01	 1.794E-01	-3.988E-01	 3.562E-01	 7.221E+01
  15.000	-3.564E-02	 1.398E-02	-7.629E-06	 1.978E-01	-4.319E-01	-8.091E-01	 1.671E-01	-2.696E-01	 3.702E-01	 7.983E+01
  15.100	-4.013E-02	 1.089E-02	-1.526E-05	 1.280E-01	-4.287E-01	-8.076E-01	 1.728E-01	-1.405E-01	 3.618E-01	 8.744E+01
  15.200	-4.359E-02	 7.813E-03	-1.526E-05	 2.565E-02	-4.270E-01	-7.997E-01	 2.179E-01	-2.524E-02	 3.090E-01	 9.504E+01
  15.300	-4.592E-02	 4.896E-03	-1.526E-05	-7.279E-02	-4.207E-01	-8.027E-01	 3.071E-01	 7.590E-02	 2.151E-01	 1.026E+02
  15.400	-4.697E-02	 2.002E-03	-1.526E-05	-1.382E-01	-4.071E-01	-8.163E-01	 4.159E-01	 1.528E-01	 8.836E-02	 1.102E+02
  15.500	-4.668E-02	-1.155E-03	-1.526E-05	-2.046E-01	-3.829E-01	-8.286E-01	 5.159E-01	 1.884E-01	-3.855E-02	 1.178E+02
  15.600	-4.512E-02	-4.823E-03	-1.526E-05	-2.608E-01	-3.429E-01	-8.513E-01	 5.830E-01	 1.987E-01	-1.300E-01	 1.254E+02
  15.700	-4.252E-02	-8.920E-03	-1.526E-05	-3.100E-01	-3.024E-01	-8.867E-01	 5.923E-01	 2.024E-01	-1.827E-01	 1.329E+02
  15.800	-3.921E-02	-1.306E-02	-1.526E-05	-3.510E-01	-2.573E-01	-9.109E-01	 5.548E-01	 2.232E-01	-1.991E-01	 1.405E+02
  15.900	-3.563E-02	-1.684E-02	-1.526E-05	-4.220E-01	-2.100E-01	-9.065E-01	 4.888E-01	 2.446E-01	-2.016E-01	 1.480E+02
  16.000	-3.208E-02	-1.981E-02	-7.629E-06	-5.147E-01	-1.496E-01	-8.695E-01	 4.363E-01	 2.233E-01	-2.010E-01	 1.556E+02
  16.100	-2.847E-02	-2.178E-02	-7.629E-06	-5.863E-01	-8.541E-02	-7.996E-01	 4.125E-01	 1.817E-01	-2.274E-01	 1.631E+02
  16.200	-2.481E-02	-2.277E-02	-7.629E-06	-6.187E-01	-2.486E-02	-6.982E-01	 4.161E-01	 1.243E-01	-2.933E-01	 1.706E+02
  16.300	-2.143E-02	-2.294E-02	-7.629E-06	-6.501E-01	 3.834E-02	-5.721E-01	 4.433E-01	 8.387E-02	-3.733E-01	 1.781E+02
  16.400	-1.861E-02	-2.241E-02	-7.629E-06	-6.987E-01	 9.636E-02	-4.599E-01	 4.612E-01	 7.955E-02	-4.516E-01	 1.856E+02
  16.500	-1.632E-02	-2.104E-02	-7.629E-06	-7.358E-01	 1.532E-01	-3.799E-01	 4.482E-01	 8.095E-02	-5.069E-01	 1.931E+02
  16.600	-1.458E-02	-1.875E-02	-7.629E-06	-7.354E-01	 2.124E-01	-3.224E-01	 3.961E-01	 7.981E-02	-5.194E-01	 2.006E+02
  16.700	-1.355E-02	-1.551E-02	 0.000E+00	-7.171E-01	 2.681E-01	-2.731E-01	 3.067E-01	 6.383E-02	-4.899E-01	 2.081E+02
  16.800	-1.320E-02	-1.144E-02	 0.000E+00	-6.958E-01	 3.278E-01	-2.417E-01	 2.048E-01	 3.031E-02	-4.285E-01	 2.156E+02
  16.900	-1.348E-02	-6.872E-03	 0.000E+00	-6.735E-01	 3.788E-01	-1.985E-01	 1.034E-01	-2.646E-02	-3.694E-01	 2.230E+02
  17.000	-1.433E-02	-2.197E-03	 0.000E+00	-6.403E-01	 4.172E-01	-1.273E-01	 2.558E-02	-8.551E-02	-3.307E-01	 2.305E+02
  17.100	-1.572E-02	 2.286E-03	 0.000E+00	-5.907E-01	 4.413E-01	-4.956E-02	-1.977E-02	-1.511E-01	-3.202E-01	 2.379E+02
  17.200	-1.746E-02	 6.378E-03	 0.000E+00	-5.350E-01	 4.587E-01	 2.647E-02	-3.884E-02	-2.158E-01	-3.265E-01	 2.454E+02
  17.300	-1.937E-02	 1.011E-02	 0.000E+00	-4.899E-01	 4.755E-01	 8.542E-02	-4.677E-02	-2.628E-01	-3.294E-01	 2.528E+02
  17.400	-2.121E-02	 1.359E-02	-7.629E-06	-4.519E-01	 4.897E-01	 1.230E-01	-6.702E-02	-2.995E-01	-3.128E-01	 2.602E+02
  17.500	-2.270E-02	 1.688E-02	-7.629E-06	-4.211E-01	 5.005E-01	 1.663E-01	-1.191E-01	-3.311E-01	-2.675E-01	 2.676E+02
  17.600	-2.368E-02	 1.983E-02	-7.629E-06	-4.099E-01	 5.042E-01	 2.064E-01	-2.049E-01	-3.498E-01	-1.917E-01	 2.750E+02
  17.700	-2.426E-02	 2.213E-02	-7.629E-06	-3.933E-01	 4.980E-01	 2.093E-01	-3.064E-01	-3.817E-01	-9.781E-02	 2.824E+02
  17.800	-2.462E-02	 2.339E-02	-7.629E-06	-3.689E-01	 4.854E-01	 1.896E-01	-3.941E-01	-4.418E-01	-8.771E-04	 2.898E+02
  17.900	-2.474E-02	 2.337E-02	-7.629E-06	-3.669E-01	 4.681E-01	 1.787E-01	-4.474E-01	-4.997E-01	 8.245E-02	 2.972E+02
  18.000	-2.475E-02	 2.209E-02	-7.629E-06	-3.563E-01	 4.355E-01	 1.592E-01	-4.660E-01	-5.264E-01	 1.327E-01	 3.046E+02
  18.100	-2.477E-02	 1.974E-02	-7.629E-06	-3.104E-01	 3.947E-01	 1.287E-01	-4.467E-01	-5.456E-01	 1.603E-01	 3.120E+02
  18.200	-2.480E-02	 1.657E-02	-7.629E-06	-2.315E-01	 3.396E-01	 8.852E-02	-4.119E-01	-5.741E-01	 1.761E-01	 3.194E+02
  18.300	-2.468E-02	 1.291E-02	-7.629E-06	-1.413E-01	 2.774E-01	 3.884E-02	-3.828E-01	-5.957E-01	 2.017E-01	 3.267E+02
  18.400	-2.422E-02	 8.959E-03	-7.629E-06	-8.186E-02	 2.144E-01	-3.298E-02	-3.715E-01	-6.035E-01	 2.498E-01	 3.341E+02
  18.500	-2.344E-02	 4.753E-03	-7.629E-06	-2.825E-02	 1.563E-01	-1.182E-01	-3.809E-01	-5.952E-01	 3.180E-01	 3.414E+02
  18.600	-2.247E-02	 3.101E-04	-7.629E-06	 3.816E-02	 1.028E-01	-1.862E-01	-3.985E-01	-5.855E-01	 3.958E-01	 3.487E+02
  18.700	-2.153E-02	-4.261E-03	 0.000E+00	 9.218E-02	 4.771E-02	-2.705E-01	-4.127E-01	-5.875E-01	 4.636E-01	 3.561E+02
  18.800	-2.072E-02	-8.751E-03	-7.629E-06	 1.137E-01	-6.815E-03	-3.297E-01	-4.027E-01	-5.998E-01	 5.117E-01	 3.403E+00
  18.900	-2.003E-02	-1.290E-02	-7.629E-06	 1.155E-01	-7.070E-02	-3.372E-01	-3.682E-01	-6.083E-01	 5.282E-01	 1.072E+01
  19.000	-1.949E-02	-1.644E-02	-7.629E-06	 1.119E-01	-1.359E-01	-3.336E-01	-2.996E-01	-6.003E-01	 5.210E-01	 1.802E+01
  19.100	-1.915E-02	-1.923E-02	-7.629E-06	 1.404E-01	-1.953E-01	-3.391E-01	-2.084E-01	-5.553E-01	 4.993E-01	 2.533E+01
  19.200	-1.899E-02	-2.125E-02	-7.629E-06	 1.576E-01	-2.515E-01	-3.393E-01	-1.214E-01	-4.723E-01	 4.709E-01	 3.262E+01
  19.300	-1.907E-02	-2.248E-02	-7.629E-06	 1.411E-01	-2.994E-01	-3.392E-01	-5.233E-02	-3.898E-01	 4.511E-01	 3.991E+01
  19.400	-1.926E-02	-2.299E-02	-7.629E-06	 1.026E-01	-3.359E-01	-3.300E-01	-8.868E-03	-3.197E-01	 4.462E-01	 4.719E+01
  19.500	-1.946E-02	-2.275E-02	-7.629E-06	 4.629E-02	-3.656E-01	-3.215E-01	 9.691E-03	-2.531E-01	 4.451E-01	 5.447E+01
  19.600	-1.965E-02	-2.162E-02	-7.629E-06	-1.560E-02	-3.847E-01	-3.386E-01	 2.808E-02	-1.728E-01	 4.430E-01	 6.174E+01
  19.700	-1.987E-02	-1.945E-02	-7.629E-06	-6.769E-02	-3.967E-01	-3.968E-01	 6.168E-02	-9.556E-02	 4.251E-01	 6.901E+01
  19.800	-2.016E-02	-1.610E-02	-7.629E-06	-1.195E-01	-4.044E-01	-4.617E-01	 1.185E-01	-4.215E-02	 3.851E-01	 7.627E+01
  19.900	-2.038E-02	-1.167E-02	-7.629E-06	-1.466E-01	-4.115E-01	-4.990E-01	 1.976E-01	-4.081E-03	 3.207E-01	 8.353E+01
  20.000	-2.049E-02	-6.575E-03	 0.000E+00	-1.420E-01	-4.252E-01	-5.374E-01	 2.815E-01	 2.705E-02	 2.313E-01	 9.078E+01
  20.100	-2.056E-02	-1.339E-03	 0.000E+00	-1.256E-01	-4.276E-01	-5.936E-01	 3.681E-01	 4.351E-02	 1.497E-01	 9.803E+01
  20.200	-2.061E-02	 3.576E-03	 0.000E+00	-9.506E-02	-4.222E-01	-6.367E-01	 4.352E-01	 6.052E-02	 8.456E-02	 1.053E+02
  20.300	-2.061E-02	 7.967E-03	-7.629E-06	-7.474E-02	-4.119E-01	-6.377E-01	 4.690E-01	 1.021E-01	 3.415E-02	 1.125E+02
  20.400	-2.063E-02	 1.177E-02	-7.629E-06	-8.985E-02	-3.865E-01	-6.020E-01	 4.778E-01	 1.313E-01	 5.410E-03	 1.197E+02
  20.500	-2.072E-02	 1.500E-02	-7.629E-06	-1.140E-01	-3.516E-01	-5.532E-01	 4.668E-01	 1.493E-01	-1.687E-02	 1.269E+02
  20.600	-2.063E-02	 1.776E-02	-7.629E-06	-1.064E-01	-3.050E-01	-5.030E-01	 4.550E-01	 1.701E-01	-4.995E-02	 1.342E+02
  20.700	-2.024E-02	 2.003E-02	-7.629E-06	-1.100E-01	-2.534E-01	-4.287E-01	 4.492E-01	 2.147E-01	-1.087E-01	 1.414E+02
  20.800	-1.953E-02	 2.161E-02	-7.629E-06	-1.492E-01	-1.918E-01	-3.192E-01	 4.635E-01	 2.422E-01	-1.755E-01	 1.486E+02
  20.900	-1.844E-02	 2.235E-02	-7.629E-06	-1.571E-01	-1.338E-01	-2.041E-01	 4.908E-01	 2.372E-01	-2.484E-01	 1.558E+02
  21.000	-1.681E-02	 2.215E-02	-7.629E-06	-1.231E-01	-8.468E-02	-1.076E-01	 5.125E-01	 2.005E-01	-3.250E-01	 1.629E+02
  21.100	-1.470E-02	 2.089E-02	-7.629E-06	-1.122E-01	-3.561E-02	-2.893E-02	 5.188E-01	 1.752E-01	-3.780E-01	 1.701E+02
  21.200	-1.207E-02	 1.867E-02	-7.629E-06	-1.417E-01	 1.280E-02	 5.721E-02	 4.967E-01	 1.984E-01	-3.979E-01	 1.773E+02
  21.300	-8.854E-03	 1.583E-02	 0.000E+00	-1.728E-01	 6.119E-02	 1.399E-01	 4.382E-01	 2.339E-01	-4.009E-01	 1.845E+02
  21.400	-5.212E-03	 1.261E-02	 0.000E+00	-1.648E-01	 1.185E-01	 1.781E-01	 3.611E-01	 2.425E-01	-3.949E-01	 1.917E+02
  21.500	-1.530E-03	 8.972E-03	 0.000E+00	-1.511E-01	 1.830E-01	 1.746E-01	 2.862E-01	 2.258E-01	-3.869E-01	 1.989E+02
  21.600	 2.050E-03	 4.919E-03	 0.000E+00	-1.801E-01	 2.539E-01	 1.590E-01	 2.315E-01	 1.959E-01	-3.847E-01	 2.060E+02
  21.700	 5.582E-03	 4.812E-04	 0.000E+00	-2.394E-01	 3.159E-01	 1.697E-01	 1.894E-01	 1.694E-01	-4.015E-01	 2.132E+02
  21.800	 8.819E-03	-4.210E-03	 0.000E+00	-2.848E-01	 3.613E-01	 1.881E-01	 1.612E-01	 1.563E-01	-4.259E-01	 2.204E+02
  21.900	 1.132E-02	-8.852E-03	 0.000E+00	-3.195E-01	 3.930E-01	 1.775E-01	 1.430E-01	 1.474E-01	-4.368E-01	 2.275E+02
  22.000	 1.293E-02	-1.310E-02	 0.000E+00	-3.598E-01	 4.147E-01	 1.561E-01	 1.103E-01	 1.372E-01	-4.309E-01	 2.347E+02
  22.100	 1.365E-02	-1.669E-02	 0.000E+00	-4.265E-01	 4.386E-01	 1.713E-01	 5.256E-02	 1.312E-01	-4.018E-01	 2.419E+02
  22.200	 1.340E-02	-1.945E-02	-7.629E-06	-5.172E-01	 4.678E-01	 1.962E-01	-2.450E-02	 1.116E-01	-3.488E-01	 2.490E+02
  22.300	 1.218E-02	-2.126E-02	-7.629E-06	-5.808E-01	 4.972E-01	 2.127E-01	-1.139E-01	 5.598E-02	-2.836E-01	 2.562E+02
  22.400	 9.971E-03	-2.225E-02	-7.629E-06	-6.053E-01	 5.167E-01	 2.181E-01	-2.084E-01	-4.614E-02	-2.198E-01	 2.634E+02
  22.500	 6.355E-03	-2.262E-02	-7.629E-06	-6.172E-01	 5.255E-01	 2.107E-01	-2.828E-01	-1.848E-01	-1.624E-01	 2.705E+02
  22.600	 1.103E-03	-2.241E-02	-7.629E-06	-6.262E-01	 5.239E-01	 1.996E-01	-3.258E-01	-3.172E-01	-1.151E-01	 2.776E+02
  22.700	-5.663E-03	-2.147E-02	-7.629E-06	-6.212E-01	 5.062E-01	 1.725E-01	-3.529E-01	-4.098E-01	-8.045E-02	 2.848E+02
  22.800	-1.367E-02	-1.964E-02	-7.629E-06	-5.714E-01	 4.821E-01	 1.045E-01	-3.608E-01	-4.674E-01	-3.933E-02	 2.919E+02
  22.900	-2.265E-02	-1.687E-02	-7.629E-06	-4.469E-01	 4.444E-01	 1.301E-02	-3.615E-01	-5.175E-01	 7.054E-03	 2.990E+02
  23.000	-3.206E-02	-1.313E-02	-7.629E-06	-2.770E-01	 3.974E-01	-7.744E-02	-3.682E-01	-5.665E-01	 6.432E-02	 3.061E+02
  23.100	-4.128E-02	-8.584E-03	-1.526E-05	-1.144E-01	 3.431E-01	-1.517E-01	-3.901E-01	-5.917E-01	 1.326E-01	 3.132E+02
  23.200	-4.993E-02	-3.547E-03	-1.526E-05	 6.610E-03	 2.892E-01	-2.111E-01	-4.219E-01	-5.903E-01	 2.026E-01	 3.203E+02
  23.300	-5.759E-02	 1.591E-03	-2.289E-05	 9.571E-02	 2.451E-01	-2.590E-01	-4.447E-01	-5.926E-01	 2.734E-01	 3.274E+02
  23.400	-6.378E-02	 6.486E-03	-3.052E-05	 1.762E-01	 1.971E-01	-3.075E-01	-4.599E-01	-6.124E-01	 3.307E-01	 3.345E+02
  23.500	-6.824E-02	 1.094E-02	-3.815E-05	 2.331E-01	 1.493E-01	-3.580E-01	-4.556E-01	-6.441E-01	 3.760E-01	 3.416E+02
  23.600	-7.096E-02	 1.486E-02	-3.815E-05	 2.316E-01	 9.999E-02	-3.842E-01	-4.299E-01	-6.692E-01	 4.042E-01	 3.486E+02
  23.700	-7.191E-02	 1.823E-02	-3.815E-05	 1.941E-01	 4.192E-02	-3.945E-01	-3.914E-01	-6.779E-01	 4.169E-01	 3.557E+02
  23.800	-7.108E-02	 2.091E-02	-3.815E-05	 1.395E-01	-1.959E-02	-3.874E-01	-3.422E-01	-6.812E-01	 4.289E-01	 2.740E+00
  23.900	-6.868E-02	 2.271E-02	-3.815E-05	 6.235E-02	-8.016E-02	-3.585E-01	-2.957E-01	-6.857E-01	 4.423E-01	 9.774E+00
  24.000	-6.491E-02	 2.351E-02	-3.815E-05	-3.535E-02	-1.313E-01	-3.241E-01	-2.577E-01	-6.761E-01	 4.653E-01	 1.680E+01
  24.100	-6.000E-02	 2.322E-02	-3.052E-05	-1.013E-01	-1.778E-01	-2.880E-01	-2.329E-01	-6.505E-01	 4.927E-01	 2.382E+01
  24.200	-5.432E-02	 2.187E-02	-2.289E-05	-1.071E-01	-2.201E-01	-2.645E-01	-2.166E-01	-6.214E-01	 5.149E-01	 3.082E+01
  24.300	-4.820E-02	 1.968E-02	-2.289E-05	-5.687E-02	-2.521E-01	-2.639E-01	-1.905E-01	-5.842E-01	 5.272E-01	 3.781E+01
  24.400	-4.159E-02	 1.690E-02	-1.526E-05	 2.208E-02	-2.898E-01	-2.856E-01	-1.488E-01	-5.207E-01	 5.170E-01	 4.479E+01
  24.500	-3.449E-02	 1.371E-02	-7.629E-06	 1.074E-01	-3.302E-01	-3.099E-01	-7.968E-02	-4.445E-01	 4.880E-01	 5.177E+01
  24.600	-2.707E-02	 1.019E-02	-7.629E-06	 2.076E-01	-3.720E-01	-3.426E-01	 8.370E-03	-3.651E-01	 4.447E-01	 5.874E+01
  24.700	-1.948E-02	 6.304E-03	 0.000E+00	 2.915E-01	-4.149E-01	-3.940E-01	 1.005E-01	-2.916E-01	 3.929E-01	 6.570E+01
  24.800	-1.188E-02	 2.031E-03	 0.000E+00	 3.461E-01	-4.495E-01	-4.364E-01	 1.873E-01	-2.251E-01	 3.464E-01	 7.266E+01
  24.900	-4.606E-03	-2.625E-03	 0.000E+00	 3.705E-01	-4.760E-01	-4.564E-01	 2.479E-01	-1.547E-01	 3.027E-01	 7.960E+01
  25.000	 1.981E-03	-7.488E-03	 0.000E+00	 3.920E-01	-4.799E-01	-4.821E-01	 2.862E-01	-6.808E-02	 2.678E-01	 8.655E+01
  25.100	 7.816E-03	-1.227E-02	 0.000E+00	 3.917E-01	-4.630E-01	-5.133E-01	 3.099E-01	 2.298E-02	 2.360E-01	 9.349E+01
  25.200	 1.295E-02	-1.659E-02	 0.000E+00	 3.887E-01	-4.353E-01	-5.154E-01	 3.280E-01	 1.207E-01	 1.971E-01	 1.004E+02
  25.300	 1.735E-02	-2.011E-02	-7.629E-06	 3.657E-01	-4.051E-01	-4.811E-01	 3.503E-01	 2.447E-01	 1.425E-01	 1.074E+02
  25.400	 2.091E-02	-2.274E-02	-7.629E-06	 3.081E-01	-3.797E-01	-4.476E-01	 3.851E-01	 3.833E-01	 7.098E-02	 1.143E+02
  25.500	 2.350E-02	-2.453E-02	-7.629E-06	 2.362E-01	-3.576E-01	-4.466E-01	 4.360E-01	 5.350E-01	-1.185E-02	 1.212E+02
  25.600	 2.516E-02	-2.553E-02	-7.629E-06	 1.198E-01	-3.318E-01	-4.693E-01	 4.955E-01	 6.988E-01	-9.407E-02	 1.282E+02
  25.700	 2.602E-02	-2.581E-02	-7.629E-06	-1.873E-02	-3.019E-01	-4.816E-01	 5.418E-01	 8.372E-01	-1.675E-01	 1.351E+02
  25.800	 2.603E-02	-2.536E-02	-7.629E-06	-1.768E-01	-2.653E-01	-4.679E-01	 5.597E-01	 9.007E-01	-2.278E-01	 1.420E+02
  25.900	 2.502E-02	-2.419E-02	-7.629E-06	-3.306E-01	-2.118E-01	-4.606E-01	 5.526E-01	 8.859E-01	-2.694E-01	 1.490E+02
  26.000	 2.274E-02	-2.228E-02	-7.629E-06	-4.705E-01	-1.477E-01	-4.864E-01	 5.197E-01	 8.521E-01	-3.040E-01	 1.559E+02
  26.100	 1.920E-02	-1.962E-02	-7.629E-06	-5.896E-01	-7.452E-02	-4.949E-01	 4.766E-01	 8.034E-01	-3.317E-01	 1.628E+02
  26.200	 1.432E-02	-1.631E-02	 0.000E+00	-6.542E-01	-7.384E-03	-4.334E-01	 4.324E-01	 7.123E-01	-3.606E-01	 1.697E+02
  26.300	 8.113E-03	-1.255E-02	 0.000E+00	-6.623E-01	 5.322E-02	-3.217E-01	 4.042E-01	 5.969E-01	-3.880E-01	 1.766E+02
  26.400	 7.736E-04	-8.562E-03	 0.000E+00	-6.367E-01	 1.040E-01	-1.972E-01	 3.923E-01	 4.948E-01	-4.122E-01	 1.835E+02
  26.500	-7.256E-03	-4.486E-03	 0.000E+00	-5.952E-01	 1.388E-01	-6.889E-02	 3.813E-01	 4.282E-01	-4.389E-01	 1.904E+02
  26.600	-1.539E-02	-3.577E-04	 0.000E+00	-5.488E-01	 1.719E-01	 6.798E-02	 3.623E-01	 3.851E-01	-4.581E-01	 1.973E+02
  26.700	-2.321E-02	 3.816E-03	-7.629E-06	-4.974E-01	 2.072E-01	 2.082E-01	 3.231E-01	 3.493E-01	-4.677E-01	 2.042E+02
  26.800	-3.029E-02	 7.952E-03	-7.629E-06	-4.530E-01	 2.543E-01	 3.295E-01	 2.646E-01	 3.133E-01	-4.592E-01	 2.111E+02
  26.900	-3.613E-02	 1.185E-02	-7.629E-06	-4.291E-01	 3.149E-01	 4.482E-01	 1.911E-01	 2.984E-01	-4.369E-01	 2.180E+02
  27.000	-4.017E-02	 1.519E-02	-1.526E-05	-4.173E-01	 3.785E-01	 5.563E-01	 1.069E-01	 2.951E-01	-4.122E-01	 2.249E+02
  27.100	-4.217E-02	 1.765E-02	-1.526E-05	-4.146E-01	 4.348E-01	 6.153E-01	 2.625E-02	 2.754E-01	-3.927E-01	 2.318E+02
  27.200	-4.206E-02	 1.896E-02	-1.526E-05	-4.084E-01	 4.787E-01	 6.324E-01	-3.757E-02	 2.388E-01	-3.763E-01	 2.387E+02
  27.300	-3.998E-02	 1.899E-02	-1.526E-05	-3.930E-01	 5.008E-01	 6.452E-01	-8.605E-02	 1.642E-01	-3.607E-01	 2.455E+02
  27.400	-3.614E-02	 1.789E-02	-1.526E-05	-3.568E-01	 5.088E-01	 6.681E-01	-1.137E-01	 6.686E-02	-3.322E-01	 2.524E+02
  27.500	-3.083E-02	 1.597E-02	-7.629E-06	-2.934E-01	 4.983E-01	 6.773E-01	-1.406E-01	-4.278E-03	-2.956E-01	 2.593E+02
  27.600	-2.427E-02	 1.349E-02	-7.629E-06	-2.104E-01	 4.837E-01	 6.403E-01	-1.729E-01	-3.945E-02	-2.431E-01	 2.661E+02
  27.700	-1.672E-02	 1.059E-02	 0.000E+00	-1.092E-01	 4.710E-01	 5.912E-01	-2.170E-01	-4.219E-02	-1.769E-01	 2.730E+02
  27.800	-8.399E-03	 7.296E-03	 0.000E+00	 3.997E-03	 4.579E-01	 5.604E-01	-2.780E-01	-4.919E-02	-1.102E-01	 2.799E+02
  27.900	 5.749E-04	 3.615E-03	 0.000E+00	 1.240E-01	 4.558E-01	 5.537E-01	-3.361E-01	-7.058E-02	-4.077E-02	 2.867E+02
  28.000	 9.963E-03	-3.774E-04	 0.000E+00	 2.532E-01	 4.497E-01	 5.608E-01	-3.888E-01	-7.530E-02	 1.304E-02	 2.936E+02
  28.100	 1.937E-02	-4.466E-03	 0.000E+00	 3.727E-01	 4.330E-01	 5.605E-01	-4.238E-01	-6.502E-02	 5.396E-02	 3.005E+02
  28.200	 2.842E-02	-8.452E-03	-7.629E-06	 4.720E-01	 4.028E-01	 5.645E-01	-4.341E-01	-7.310E-02	 9.538E-02	 3.073E+02
  28.300	 3.688E-02	-1.217E-02	-1.526E-05	 5.194E-01	 3.553E-01	 6.007E-01	-4.305E-01	-1.009E-01	 1.414E-01	 3.142E+02
  28.400	 4.475E-02	-1.544E-02	-1.526E-05	 5.489E-01	 2.959E-01	 6.622E-01	-4.210E-01	-1.337E-01	 2.007E-01	 3.211E+02
  28.500	 5.191E-02	-1.816E-02	-2.289E-05	 6.142E-01	 2.290E-01	 7.061E-01	-4.164E-01	-1.379E-01	 2.645E-01	 3.279E+02
  28.600	 5.799E-02	-2.030E-02	-3.052E-05	 7.023E-01	 1.647E-01	 7.086E-01	-4.218E-01	-9.630E-02	 3.220E-01	 3.348E+02
  28.700	 6.260E-02	-2.189E-02	-3.052E-05	 7.576E-01	 1.161E-01	 7.027E-01	-4.286E-01	-4.309E-02	 3.752E-01	 3.417E+02
  28.800	 6.559E-02	-2.293E-02	-3.815E-05	 7.736E-01	 7.873E-02	 6.841E-01	-4.323E-01	-1.659E-02	 4.174E-01	 3.486E+02
  28.900	 6.712E-02	-2.337E-02	-3.815E-05	 7.878E-01	 4.705E-02	 6.492E-01	-4.224E-01	-4.265E-03	 4.481E-01	 3.555E+02
  29.000	 6.734E-02	-2.305E-02	-3.815E-05	 8.384E-01	 7.303E-03	 5.808E-01	-3.967E-01	 3.197E-02	 4.655E-01	 2.386E+00
  29.100	 6.622E-02	-2.182E-02	-3.815E-05	 9.500E-01	-5.215E-02	 4.767E-01	-3.528E-01	 9.641E-02	 4.719E-01	 9.289E+00
  29.200	 6.360E-02	-1.966E-02	-3.052E-05	 1.072E+00	-1.252E-01	 3.498E-01	-2.900E-01	 1.706E-01	 4.749E-01	 1.620E+01
  29.300	 5.961E-02	-1.673E-02	-3.052E-05	 1.139E+00	-2.018E-01	 2.473E-01	-2.181E-01	 2.397E-01	 4.783E-01	 2.311E+01
  29.400	 5.476E-02	-1.335E-02	-2.289E-05	 1.154E+00	-2.750E-01	 1.877E-01	-1.488E-01	 3.078E-01	 4.828E-01	 3.004E+01
  29.500	 4.946E-02	-9.880E-03	-2.289E-05	 1.164E+00	-3.345E-01	 1.565E-01	-8.945E-02	 3.702E-01	 4.858E-01	 3.696E+01
  29.600	 4.378E-02	-6.507E-03	-1.526E-05	 1.155E+00	-3.730E-01	 1.306E-01	-4.747E-02	 4.105E-01	 4.824E-01	 4.390E+01
  29.700	 3.786E-02	-3.225E-03	-7.629E-06	 1.091E+00	-3.879E-01	 1.199E-01	-1.450E-02	 4.166E-01	 4.740E-01	 5.084E+01
  29.800	 3.202E-02	 1.377E-05	-7.629E-06	 9.809E-01	-3.924E-01	 1.304E-01	 1.483E-02	 4.229E-01	 4.525E-01	 5.779E+01
  29.900	 2.640E-02	 3.217E-03	-7.629E-06	 8.916E-01	-3.940E-01	 1.527E-01	 4.905E-02	 4.643E-01	 4.153E-01	 6.474E+01
  30.000	 2.126E-02	 6.323E-03	 0.000E+00	 8.411E-01	-3.975E-01	 1.752E-01	 9.955E-02	 5.494E-01	 3.688E-01	 7.170E+01
  30.100	 1.682E-02	 9.232E-03	 0.000E+00	 7.965E-01	-4.156E-01	 2.003E-01	 1.648E-01	 6.568E-01	 3.130E-01	 7.866E+01
  30.200	 1.333E-02	 1.173E-02	 0.000E+00	 7.402E-01	-4.336E-01	 2.369E-01	 2.454E-01	 7.441E-01	 2.611E-01	 8.563E+01
  30.300	 1.095E-02	 1.357E-02	 0.000E+00	 6.691E-01	-4.521E-01	 2.830E-01	 3.152E-01	 8.146E-01	 2.091E-01	 9.261E+01
  30.400	 1.013E-02	 1.455E-02	 0.000E+00	 6.060E-01	-4.546E-01	 3.181E-01	 3.724E-01	 9.196E-01	 1.587E-01	 9.959E+01
  30.500	 1.103E-02	 1.465E-02	 0.000E+00	 5.585E-01	-4.431E-01	 3.334E-01	 4.060E-01	 1.021E+00	 1.028E-01	 1.066E+02
  30.600	 1.341E-02	 1.397E-02	 0.000E+00	 5.378E-01	-4.126E-01	 3.373E-01	 4.182E-01	 1.069E+00	 4.666E-02	 1.136E+02
  30.700	 1.720E-02	 1.262E-02	 0.000E+00	 5.167E-01	-3.603E-01	 3.456E-01	 4.259E-01	 1.067E+00	-4.137E-03	 1.206E+02
  30.800	 2.234E-02	 1.060E-02	-7.629E-06	 4.924E-01	-3.070E-01	 3.466E-01	 4.302E-01	 1.066E+00	-6.589E-02	 1.276E+02
  30.900	 2.859E-02	 7.938E-03	-7.629E-06	 4.652E-01	-2.529E-01	 3.432E-01	 4.469E-01	 1.088E+00	-1.261E-01	 1.346E+02
  31.000	 3.562E-02	 4.665E-03	-7.629E-06	 4.445E-01	-2.126E-01	 3.464E-01	 4.712E-01	 1.087E+00	-1.843E-01	 1.416E+02
  31.100	 4.319E-02	 8.990E-04	-1.526E-05	 4.406E-01	-1.851E-01	 3.789E-01	 4.987E-01	 1.045E+00	-2.388E-01	 1.487E+02
  31.200	 5.090E-02	-3.191E-03	-2.289E-05	 4.355E-01	-1.589E-01	 4.412E-01	 5.188E-01	 9.869E-01	-2.836E-01	 1.557E+02
  31.300	 5.831E-02	-7.337E-03	-2.289E-05	 4.088E-01	-1.281E-01	 5.166E-01	 5.173E-01	 9.418E-01	-3.181E-01	 1.628E+02
  31.400	 6.530E-02	-1.122E-02	-3.052E-05	 3.648E-01	-7.517E-02	 5.997E-01	 4.956E-01	 9.250E-01	-3.412E-01	 1.698E+02
  31.500	 7.176E-02	-1.456E-02	-3.815E-05	 3.027E-01	-3.191E-03	 6.894E-01	 4.480E-01	 9.240E-01	-3.654E-01	 1.769E+02
  31.600	 7.738E-02	-1.721E-02	-4.578E-05	 2.507E-01	 8.055E-02	 7.779E-01	 3.846E-01	 9.141E-01	-3.870E-01	 1.840E+02
  31.700	 8.187E-02	-1.930E-02	-5.341E-05	 1.981E-01	 1.629E-01	 8.557E-01	 3.158E-01	 8.945E-01	-4.100E-01	 1.911E+02
  31.800	 8.507E-02	-2.098E-02	-6.104E-05	 1.346E-01	 2.401E-01	 9.005E-01	 2.587E-01	 8.638E-01	-4.318E-01	 1.982E+02
  31.900	 8.677E-02	-2.236E-02	-6.104E-05	 8.034E-02	 3.005E-01	 9.163E-01	 2.198E-01	 8.275E-01	-4.468E-01	 2.053E+02
  32.000	 8.677E-02	-2.332E-02	-6.104E-05	 7.423E-02	 3.328E-01	 9.386E-01	 1.928E-01	 7.733E-01	-4.554E-01	 2.124E+02
  32.100	 8.501E-02	-2.368E-02	-6.104E-05	 1.093E-01	 3.506E-01	 9.693E-01	 1.692E-01	 6.972E-01	-4.485E-01	 2.195E+02
  32.200	 8.138E-02	-2.323E-02	-5.341E-05	 1.527E-01	 3.630E-01	 9.684E-01	 1.352E-01	 5.988E-01	-4.283E-01	 2.266E+02
  32.300	 7.596E-02	-2.181E-02	-4.578E-05	 1.901E-01	 3.820E-01	 9.491E-01	 8.486E-02	 5.347E-01	-3.948E-01	 2.338E+02
  32.400	 6.913E-02	-1.950E-02	-3.815E-05	 2.286E-01	 4.117E-01	 9.401E-01	 1.236E-02	 5.076E-01	-3.555E-01	 2.409E+02
  32.500	 6.126E-02	-1.651E-02	-3.052E-05	 2.680E-01	 4.518E-01	 9.758E-01	-7.448E-02	 4.673E-01	-3.097E-01	 2.480E+02
  32.600	 5.265E-02	-1.315E-02	-2.289E-05	 3.051E-01	 4.944E-01	 1.053E+00	-1.579E-01	 4.091E-01	-2.619E-01	 2.552E+02
  32.700	 4.354E-02	-9.685E-03	-1.526E-05	 3.262E-01	 5.212E-01	 1.089E+00	-2.303E-01	 3.565E-01	-2.261E-01	 2.624E+02
  32.800	 3.433E-02	-6.299E-03	-7.629E-06	 3.161E-01	 5.337E-01	 1.079E+00	-2.794E-01	 3.191E-01	-1.898E-01	 2.695E+02
  32.900	 2.545E-02	-3.114E-03	-7.629E-06	 2.832E-01	 5.260E-01	 1.085E+00	-3.097E-01	 2.760E-01	-1.492E-01	 2.767E+02
  33.000	 1.721E-02	-1.057E-04	 0.000E+00	 2.412E-01	 4.956E-01	 1.111E+00	-3.297E-01	 2.175E-01	-1.022E-01	 2.839E+02
  33.100	 9.913E-03	 2.806E-03	 0.000E+00	 2.195E-01	 4.586E-01	 1.093E+00	-3.448E-01	 1.594E-01	-4.083E-02	 2.911E+02
  33.200	 3.814E-03	 5.504E-03	 0.000E+00	 2.227E-01	 4.210E-01	 1.021E+00	-3.689E-01	 1.203E-01	 2.867E-02	 2.983E+02
  33.300	-1.051E-03	 7.809E-03	 0.000E+00	 2.475E-01	 3.902E-01	 9.570E-01	-4.009E-01	 9.500E-02	 9.854E-02	 3.055E+02
  33.400	-4.505E-03	 9.519E-03	 0.000E+00	 2.993E-01	 3.644E-01	 9.458E-01	-4.398E-01	 6.534E-02	 1.607E-01	 3.127E+02
  33.500	-6.262E-03	 1.047E-02	 0.000E+00	 3.910E-01	 3.354E-01	 9.579E-01	-4.797E-01	 3.183E-02	 2.156E-01	 3.199E+02
  33.600	-6.280E-03	 1.064E-02	 0.000E+00	 5.138E-01	 3.006E-01	 9.427E-01	-4.991E-01	-9.042E-04	 2.697E-01	 3.271E+02
  33.700	-4.593E-03	 1.016E-02	 0.000E+00	 6.424E-01	 2.516E-01	 8.838E-01	-4.927E-01	-1.636E-02	 3.169E-01	 3.343E+02
  33.800	-1.100E-03	 9.172E-03	 0.000E+00	 7.590E-01	 1.802E-01	 8.013E-01	-4.645E-01	 4.528E-03	 3.578E-01	 3.415E+02
  33.900	 4.175E-03	 7.728E-03	 0.000E+00	 8.364E-01	 9.488E-02	 7.033E-01	-4.202E-01	 5.453E-02	 3.987E-01	 3.487E+02
  34.000	 1.076E-02	 5.826E-03	 0.000E+00	 8.515E-01	 6.782E-03	 6.096E-01	-3.713E-01	 1.022E-01	 4.306E-01	 3.559E+02
  34.100	 1.833E-02	 3.428E-03	 0.000E+00	 8.482E-01	-6.649E-02	 5.222E-01	-3.234E-01	 1.322E-01	 4.582E-01	 3.175E+00
  34.200	 2.667E-02	 4.767E-04	-7.629E-06	 8.593E-01	-1.236E-01	 4.178E-01	-2.827E-01	 1.554E-01	 4.783E-01	 1.041E+01
  34.300	 3.526E-02	-2.901E-03	-7.629E-06	 8.861E-01	-1.630E-01	 3.096E-01	-2.516E-01	 1.691E-01	 4.879E-01	 1.765E+01
  34.400	 4.341E-02	-6.431E-03	-1.526E-05	 9.000E-01	-1.911E-01	 2.249E-01	-2.286E-01	 1.617E-01	 4.890E-01	 2.490E+01
  34.500	 5.066E-02	-9.887E-03	-2.289E-05	 8.956E-01	-2.225E-01	 1.532E-01	-1.994E-01	 1.361E-01	 4.866E-01	 3.215E+01
  34.600	 5.661E-02	-1.302E-02	-2.289E-05	 8.923E-01	-2.640E-01	 8.546E-02	-1.518E-01	 1.194E-01	 4.839E-01	 3.939E+01
  34.700	 6.092E-02	-1.563E-02	-3.052E-05	 8.797E-01	-3.181E-01	 3.312E-02	-8.699E-02	 1.259E-01	 4.739E-01	 4.665E+01
  34.800	 6.354E-02	-1.765E-02	-3.052E-05	 8.181E-01	-3.756E-01	-4.453E-03	-5.387E-03	 1.621E-01	 4.596E-01	 5.390E+01
  34.900	 6.439E-02	-1.914E-02	-3.052E-05	 7.341E-01	-4.268E-01	-2.805E-02	 8.122E-02	 2.291E-01	 4.387E-01	 6.116E+01
  35.000	 6.323E-02	-2.009E-02	-3.052E-05	 6.763E-01	-4.619E-01	-3.236E-02	 1.534E-01	 2.977E-01	 4.025E-01	 6.842E+01
  35.100	 6.001E-02	-2.045E-02	-3.052E-05	 6.600E-01	-4.746E-01	-3.370E-02	 2.052E-01	 3.527E-01	 3.536E-01	 7.567E+01
  35.200	 5.508E-02	-2.024E-02	-2.289E-05	 6.592E-01	-4.633E-01	-5.333E-02	 2.461E-01	 4.101E-01	 2.978E-01	 8.294E+01
  35.300	 4.890E-02	-1.941E-02	-2.289E-05	 6.590E-01	-4.333E-01	-7.024E-02	 2.817E-01	 5.098E-01	 2.396E-01	 9.020E+01
  35.400	 4.185E-02	-1.790E-02	-1.526E-05	 6.714E-01	-4.072E-01	-6.872E-02	 3.101E-01	 6.535E-01	 1.761E-01	 9.747E+01
  35.500	 3.441E-02	-1.582E-02	-7.629E-06	 6.849E-01	-3.879E-01	-5.503E-02	 3.489E-01	 7.945E-01	 1.144E-01	 1.047E+02
  35.600	 2.700E-02	-1.339E-02	-7.629E-06	 6.647E-01	-3.773E-01	-4.627E-02	 4.010E-01	 8.910E-01	 5.595E-02	 1.120E+02
  35.700	 2.007E-02	-1.076E-02	-7.629E-06	 6.192E-01	-3.737E-01	-4.047E-02	 4.557E-01	 9.507E-01	-1.053E-03	 1.193E+02
  35.800	 1.419E-02	-8.089E-03	 0.000E+00	 5.425E-01	-3.667E-01	-1.519E-02	 5.028E-01	 9.987E-01	-5.978E-02	 1.266E+02
  35.900	 9.610E-03	-5.475E-03	 0.000E+00	 4.662E-01	-3.445E-01	 3.879E-02	 5.335E-01	 1.050E+00	-1.238E-01	 1.339E+02
  36.000	 6.175E-03	-2.912E-03	 0.000E+00	 3.792E-01	-2.931E-01	 1.037E-01	 5.442E-01	 1.097E+00	-1.856E-01	 1.412E+02
  36.100	 3.861E-03	-3.647E-04	 0.000E+00	 2.787E-01	-2.162E-01	 1.732E-01	 5.322E-01	 1.103E+00	-2.394E-01	 1.485E+02
  36.200	 3.128E-03	 2.047E-03	 0.000E+00	 1.939E-01	-1.288E-01	 2.547E-01	 5.013E-01	 1.083E+00	-2.904E-01	 1.558E+02
  36.300	 4.268E-03	 4.127E-03	 0.000E+00	 1.247E-01	-4.376E-02	 3.518E-01	 4.623E-01	 1.042E+00	-3.347E-01	 1.631E+02
  36.400	 7.021E-03	 5.694E-03	 0.000E+00	 5.878E-02	 2.101E-02	 4.320E-01	 4.230E-01	 1.004E+00	-3.717E-01	 1.705E+02
  36.500	 1.109E-02	 6.551E-03	 0.000E+00	-2.980E-02	 6.991E-02	 4.520E-01	 3.966E-01	 9.687E-01	-3.978E-01	 1.778E+02
  36.600	 1.628E-02	 6.641E-03	 0.000E+00	-1.395E-01	 1.136E-01	 4.433E-01	 3.857E-01	 9.208E-01	-4.117E-01	 1.851E+02
  36.700	 2.232E-02	 6.127E-03	-7.629E-06	-2.147E-01	 1.473E-01	 4.674E-01	 3.732E-01	 8.563E-01	-4.232E-01	 1.925E+02
  36.800	 2.881E-02	 5.229E-03	-7.629E-06	-2.242E-01	 1.777E-01	 5.149E-01	 3.442E-01	 7.822E-01	-4.380E-01	 1.998E+02
  36.900	 3.524E-02	 4.062E-03	-7.629E-06	-2.094E-01	 2.276E-01	 5.518E-01	 2.997E-01	 7.136E-01	-4.484E-01	 2.072E+02
  37.000	 4.114E-02	 2.665E-03	-1.526E-05	-2.114E-01	 2.968E-01	 5.671E-01	 2.379E-01	 6.428E-01	-4.513E-01	 2.145E+02
  37.100	 4.637E-02	 1.052E-03	-1.526E-05	-2.171E-01	 3.730E-01	 6.117E-01	 1.633E-01	 5.866E-01	-4.410E-01	 2.219E+02
  37.200	 5.096E-02	-8.250E-04	-2.289E-05	-1.869E-01	 4.366E-01	 7.214E-01	 7.826E-02	 5.727E-01	-4.239E-01	 2.292E+02
  37.300	 5.473E-02	-3.021E-03	-2.289E-05	-1.385E-01	 4.814E-01	 8.630E-01	-3.045E-03	 5.484E-01	-3.913E-01	 2.366E+02
  37.400	 5.736E-02	-5.455E-03	-2.289E-05	-1.152E-01	 5.021E-01	 9.569E-01	-6.667E-02	 5.330E-01	-3.465E-01	 2.439E+02
  37.500	 5.884E-02	-8.014E-03	-2.289E-05	-1.216E-01	 5.004E-01	 9.954E-01	-1.166E-01	 5.471E-01	-3.020E-01	 2.513E+02
  37.600	 5.952E-02	-1.064E-02	-3.052E-05	-1.242E-01	 4.948E-01	 1.016E+00	-1.554E-01	 5.593E-01	-2.530E-01	 2.587E+02
  37.700	 5.932E-02	-1.316E-02	-3.052E-05	-1.104E-01	 4.865E-01	 1.051E+00	-1.959E-01	 5.484E-01	-2.110E-01	 2.660E+02
  37.800	 5.801E-02	-1.535E-02	-2.289E-05	-8.950E-02	 4.866E-01	 1.057E+00	-2.366E-01	 5.191E-01	-1.690E-01	 2.734E+02
  37.900	 5.547E-02	-1.708E-02	-2.289E-05	-6.041E-02	 4.951E-01	 9.899E-01	-2.861E-01	 4.696E-01	-1.268E-01	 2.808E+02
  38.000	 5.164E-02	-1.825E-02	-2.289E-05	-1.815E-02	 5.049E-01	 8.956E-01	-3.397E-01	 4.065E-01	-7.673E-02	 2.882E+02
  38.100	 4.652E-02	-1.877E-02	-1.526E-05	 4.797E-02	 4.998E-01	 8.388E-01	-3.919E-01	 3.250E-01	-2.099E-02	 2.956E+02
  38.200	 4.032E-02	-1.860E-02	-1.526E-05	 1.505E-01	 4.711E-01	 8.237E-01	-4.356E-01	 2.088E-01	 4.417E-02	 3.030E+02
  38.300	 3.331E-02	-1.770E-02	-7.629E-06	 2.765E-01	 4.189E-01	 8.235E-01	-4.605E-01	 8.426E-02	 1.235E-01	 3.104E+02
  38.400	 2.571E-02	-1.609E-02	-7.629E-06	 3.990E-01	 3.447E-01	 8.084E-01	-4.668E-01	-3.864E-02	 2.036E-01	 3.178E+02
  38.500	 1.794E-02	-1.394E-02	 0.000E+00	 5.087E-01	 2.620E-01	 7.702E-01	-4.552E-01	-1.771E-01	 2.771E-01	 3.252E+02
  38.600	 1.069E-02	-1.152E-02	 0.000E+00	 5.951E-01	 1.839E-01	 7.322E-01	-4.361E-01	-3.256E-01	 3.405E-01	 3.326E+02
  38.700	 4.304E-03	-9.061E-03	 0.000E+00	 6.454E-01	 1.189E-01	 7.089E-01	-4.211E-01	-4.497E-01	 3.869E-01	 3.400E+02
  38.800	-1.145E-03	-6.742E-03	 0.000E+00	 6.838E-01	 7.114E-02	 6.306E-01	-4.071E-01	-5.457E-01	 4.188E-01	 3.475E+02
  38.900	-5.716E-03	-4.702E-03	 0.000E+00	 6.963E-01	 3.392E-02	 4.919E-01	-3.968E-01	-6.094E-01	 4.421E-01	 3.549E+02
  39.000	-9.476E-03	-2.895E-03	 0.000E+00	 7.085E-01	-3.347E-03	 3.432E-01	-3.826E-01	-6.388E-01	 4.680E-01	 2.295E+00
  39.100	-1.242E-02	-1.212E-03	 0.000E+00	 7.393E-01	-5.506E-02	 2.164E-01	-3.568E-01	-6.263E-01	 4.936E-01	 9.712E+00
  39.200	-1.461E-02	 4.214E-04	 0.000E+00	 7.536E-01	-1.222E-01	 8.241E-02	-3.142E-01	-5.492E-01	 5.126E-01	 1.712E+01
  39.300	-1.589E-02	 1.942E-03	 0.000E+00	 7.158E-01	-1.921E-01	-5.427E-02	-2.455E-01	-4.152E-01	 5.292E-01	 2.454E+01
  39.400	-1.626E-02	 3.239E-03	 0.000E+00	 6.402E-01	-2.699E-01	-1.673E-01	-1.721E-01	-2.764E-01	 5.285E-01	 3.195E+01
  39.500	-1.583E-02	 4.185E-03	 0.000E+00	 5.549E-01	-3.336E-01	-2.520E-01	-9.550E-02	-1.690E-01	 5.141E-01	 3.935E+01
  39.600	-1.478E-02	 4.633E-03	 0.000E+00	 4.937E-01	-3.768E-01	-3.386E-01	-2.939E-02	-5.464E-02	 4.833E-01	 4.676E+01
  39.700	-1.331E-02	 4.555E-03	 0.000E+00	 4.449E-01	-3.972E-01	-4.376E-01	 2.702E-02	 7.453E-02	 4.395E-01	 5.415E+01
  39.800	-1.156E-02	 4.083E-03	 0.000E+00	 4.028E-01	-3.964E-01	-5.417E-01	 7.746E-02	 1.995E-01	 3.942E-01	 6.155E+01
  39.900	-9.576E-03	 3.311E-03	 0.000E+00	 3.441E-01	-3.921E-01	-6.302E-01	 1.175E-01	 3.037E-01	 3.462E-01	 6.894E+01
  40.000	-7.283E-03	 2.291E-03	 0.000E+00	 2.952E-01	-3.893E-01	-7.110E-01	 1.630E-01	 3.849E-01	 3.062E-01	 7.632E+01
  40.100	-4.709E-03	 1.033E-03	 0.000E+00	 2.763E-01	-4.036E-01	-7.880E-01	 2.136E-01	 4.311E-01	 2.654E-01	 8.371E+01
  40.200	-2.049E-03	-5.284E-04	 0.000E+00	 2.680E-01	-4.297E-01	-8.547E-01	 2.742E-01	 4.700E-01	 2.196E-01	 9.108E+01
  40.300	 4.462E-04	-2.479E-03	 0.000E+00	 2.484E-01	-4.543E-01	-9.098E-01	 3.473E-01	 4.919E-01	 1.718E-01	 9.845E+01
  40.400	 2.561E-03	-4.805E-03	 0.000E+00	 2.066E-01	-4.675E-01	-9.472E-01	 4.212E-01	 4.974E-01	 1.166E-01	 1.058E+02
  40.500	 4.133E-03	-7.357E-03	 0.000E+00	 1.551E-01	-4.565E-01	-9.506E-01	 4.809E-01	 5.124E-01	 5.325E-02	 1.132E+02
  40.600	 4.964E-03	-9.932E-03	 0.000E+00	 8.838E-02	-4.191E-01	-9.057E-01	 5.120E-01	 5.193E-01	-1.536E-02	 1.205E+02
  40.700	 4.874E-03	-1.231E-02	 0.000E+00	 3.163E-02	-3.554E-01	-8.283E-01	 5.160E-01	 4.891E-01	-8.188E-02	 1.279E+02
  40.800	 3.826E-03	-1.438E-02	 0.000E+00	-4.459E-02	-2.794E-01	-7.320E-01	 5.021E-01	 4.346E-01	-1.435E-01	 1.352E+02
  40.900	 1.897E-03	-1.610E-02	 0.000E+00	-1.392E-01	-2.070E-01	-6.268E-01	 4.838E-01	 4.156E-01	-1.958E-01	 1.426E+02
  41.000	-7.631E-04	-1.748E-02	 0.000E+00	-2.435E-01	-1.524E-01	-5.172E-01	 4.716E-01	 4.375E-01	-2.413E-01	 1.499E+02
  41.100	-4.059E-03	-1.842E-02	 0.000E+00	-3.677E-01	-1.147E-01	-3.880E-01	 4.719E-01	 4.645E-01	-2.822E-01	 1.572E+02
  41.200	-7.856E-03	-1.886E-02	 0.000E+00	-5.118E-01	-8.314E-02	-2.309E-01	 4.787E-01	 5.029E-01	-3.196E-01	 1.645E+02
  41.300	-1.187E-02	-1.872E-02	 0.000E+00	-6.477E-01	-4.723E-02	-5.769E-02	 4.772E-01	 5.406E-01	-3.574E-01	 1.718E+02
  41.400	-1.564E-02	-1.793E-02	-7.629E-06	-7.681E-01	 9.102E-03	 1.198E-01	 4.587E-01	 5.755E-01	-3.968E-01	 1.791E+02
  41.500	-1.872E-02	-1.649E-02	-7.629E-06	-8.644E-01	 8.773E-02	 2.793E-01	 4.152E-01	 5.982E-01	-4.368E-01	 1.864E+02
  41.600	-2.091E-02	-1.455E-02	-7.629E-06	-9.283E-01	 1.789E-01	 4.143E-01	 3.503E-01	 5.689E-01	-4.696E-01	 1.937E+02
  41.700	-2.205E-02	-1.233E-02	-7.629E-06	-9.729E-01	 2.718E-01	 5.414E-01	 2.742E-01	 4.753E-01	-4.840E-01	 2.010E+02
  41.800	-2.213E-02	-1.012E-02	-7.629E-06	-1.012E+00	 3.465E-01	 6.468E-01	 1.955E-01	 3.521E-01	-4.810E-01	 2.083E+02
  41.900	-2.120E-02	-8.139E-03	 0.000E+00	-1.042E+00	 3.953E-01	 7.048E-01	 1.294E-01	 2.279E-01	-4.576E-01	 2.156E+02
  42.000	-1.945E-02	-6.464E-03	 0.000E+00	-1.050E+00	 4.142E-01	 7.238E-01	 7.685E-02	 1.037E-01	-4.250E-01	 2.229E+02
  42.100	-1.701E-02	-5.072E-03	 0.000E+00	-1.024E+00	 4.188E-01	 7.311E-01	 3.812E-02	-2.578E-02	-3.873E-01	 2.302E+02
  42.200	-1.426E-02	-3.911E-03	 0.000E+00	-9.595E-01	 4.172E-01	 7.060E-01	 1.257E-03	-1.311E-01	-3.558E-01	 2.375E+02
  42.300	-1.149E-02	-2.892E-03	 0.000E+00	-8.661E-01	 4.297E-01	 6.628E-01	-3.604E-02	-2.167E-01	-3.277E-01	 2.447E+02
  42.400	-8.797E-03	-2.025E-03	 0.000E+00	-7.522E-01	 4.618E-01	 6.230E-01	-8.337E-02	-2.929E-01	-3.005E-01	 2.520E+02
  42.500	-6.233E-03	-1.307E-03	 0.000E+00	-6.173E-01	 5.009E-01	 5.895E-01	-1.461E-01	-3.320E-01	-2.748E-01	 2.592E+02
  42.600	-3.942E-03	-7.120E-04	 0.000E+00	-4.556E-01	 5.343E-01	 5.483E-01	-2.158E-01	-3.610E-01	-2.404E-01	 2.665E+02
  42.700	-1.984E-03	-2.938E-04	 0.000E+00	-2.659E-01	 5.490E-01	 5.020E-01	-2.816E-01	-4.023E-01	-1.891E-01	 2.737E+02
  42.800	-4.198E-04	-3.139E-05	 0.000E+00	-6.564E-02	 5.349E-01	 4.736E-01	-3.368E-01	-4.536E-01	-1.241E-01	 2.810E+02
  42.900	 8.823E-04	 1.397E-04	 0.000E+00	 1.152E-01	 4.948E-01	 4.847E-01	-3.716E-01	-4.988E-01	-4.574E-02	 2.882E+02
  43.000	 2.239E-03	 1.619E-04	 0.000E+00	 2.980E-01	 4.315E-01	 5.266E-01	-3.923E-01	-5.449E-01	 3.253E-02	 2.954E+02
  43.100	 3.780E-03	-5.139E-05	 0.000E+00	 4.868E-01	 3.582E-01	 5.643E-01	-4.003E-01	-6.203E-01	 1.049E-01	 3.026E+02
  43.200	 5.505E-03	-5.682E-04	 0.000E+00	 6.420E-01	 2.941E-01	 5.602E-01	-4.022E-01	-7.119E-01	 1.673E-01	 3.098E+02
  43.300	 7.440E-03	-1.521E-03	 0.000E+00	 7.137E-01	 2.470E-01	 5.310E-01	-4.121E-01	-7.893E-01	 2.165E-01	 3.171E+02
  43.400	 9.544E-03	-2.955E-03	 0.000E+00	 6.961E-01	 2.228E-01	 4.742E-01	-4.296E-01	-8.320E-01	 2.619E-01	 3.243E+02
  43.500	 1.167E-02	-4.867E-03	 0.000E+00	 6.491E-01	 2.105E-01	 3.804E-01	-4.492E-01	-8.465E-01	 3.066E-01	 3.315E+02
  43.600	 1.346E-02	-7.082E-03	 0.000E+00	 6.282E-01	 1.881E-01	 2.526E-01	-4.669E-01	-8.401E-01	 3.473E-01	 3.387E+02
  43.700	 1.459E-02	-9.277E-03	 0.000E+00	 6.568E-01	 1.459E-01	 1.250E-01	-4.652E-01	-8.040E-01	 3.919E-01	 3.459E+02
  43.800	 1.468E-02	-1.115E-02	 0.000E+00	 6.578E-01	 7.594E-02	 8.442E-03	-4.428E-01	-7.179E-01	 4.299E-01	 3.531E+02
  43.900	 1.364E-02	-1.254E-02	 0.000E+00	 6.099E-01	-6.227E-03	-9.695E-02	-3.906E-01	-5.786E-01	 4.641E-01	 3.079E-01
  44.000	 1.183E-02	-1.359E-02	 0.000E+00	 5.593E-01	-9.072E-02	-1.592E-01	-3.194E-01	-4.165E-01	 4.921E-01	 7.499E+00
  44.100	 9.442E-03	-1.443E-02	 0.000E+00	 5.522E-01	-1.739E-01	-1.839E-01	-2.523E-01	-2.656E-01	 5.031E-01	 1.468E+01
  44.200	 6.637E-03	-1.514E-02	 0.000E+00	 5.798E-01	-2.297E-01	-1.999E-01	-1.885E-01	-1.291E-01	 5.078E-01	 2.187E+01
  44.300	 3.583E-03	-1.564E-02	 0.000E+00	 5.908E-01	-2.645E-01	-2.135E-01	-1.495E-01	 1.584E-02	 4.949E-01	 2.905E+01
  44.400	 6.429E-04	-1.580E-02	 0.000E+00	 5.612E-01	-2.780E-01	-2.369E-01	-1.228E-01	 1.810E-01	 4.748E-01	 3.622E+01
  44.500	-1.879E-03	-1.547E-02	 0.000E+00	 5.303E-01	-2.841E-01	-2.531E-01	-9.851E-02	 3.420E-01	 4.521E-01	 4.340E+01
  44.600	-3.739E-03	-1.454E-02	 0.000E+00	 5.322E-01	-3.035E-01	-2.642E-01	-6.638E-02	 4.671E-01	 4.255E-01	 5.058E+01
  44.700	-4.793E-03	-1.297E-02	 0.000E+00	 5.508E-01	-3.359E-01	-2.853E-01	-5.303E-03	 5.454E-01	 4.032E-01	 5.777E+01
  44.800	-4.973E-03	-1.088E-02	 0.000E+00	 5.374E-01	-3.849E-01	-2.996E-01	 7.590E-02	 5.727E-01	 3.779E-01	 6.495E+01
  44.900	-4.263E-03	-8.502E-03	 0.000E+00	 4.845E-01	-4.400E-01	-3.017E-01	 1.641E-01	 5.786E-01	 3.442E-01	 7.213E+01
  45.000	-2.687E-03	-6.134E-03	 0.000E+00	 4.327E-01	-4.807E-01	-3.063E-01	 2.488E-01	 5.811E-01	 3.069E-01	 7.931E+01
  45.100	-4.501E-04	-3.932E-03	 0.000E+00	 4.053E-01	-5.011E-01	-3.168E-01	 3.087E-01	 5.792E-01	 2.607E-01	 8.649E+01
  45.200	 2.272E-03	-1.881E-03	 0.000E+00	 3.850E-01	-4.858E-01	-3.187E-01	 3.461E-01	 5.790E-01	 2.136E-01	 9.368E+01
  45.300	 5.346E-03	 5.166E-05	 0.000E+00	 3.434E-01	-4.472E-01	-3.011E-01	 3.612E-01	 5.950E-01	 1.607E-01	 1.009E+02
  45.400	 8.645E-03	 1.830E-03	 0.000E+00	 2.662E-01	-3.980E-01	-3.000E-01	 3.685E-01	 6.379E-01	 9.825E-02	 1.080E+02
  45.500	 1.207E-02	 3.383E-03	 0.000E+00	 1.747E-01	-3.470E-01	-3.264E-01	 3.884E-01	 6.955E-01	 3.459E-02	 1.152E+02
  45.600	 1.551E-02	 4.602E-03	 0.000E+00	 8.663E-02	-3.141E-01	-3.357E-01	 4.191E-01	 7.463E-01	-3.436E-02	 1.224E+02
  45.700	 1.879E-02	 5.362E-03	 0.000E+00	 2.765E-02	-2.903E-01	-2.939E-01	 4.620E-01	 7.790E-01	-9.995E-02	 1.296E+02
  45.800	 2.151E-02	 5.542E-03	-7.629E-06	-3.707E-02	-2.752E-01	-2.178E-01	 5.024E-01	 7.728E-01	-1.613E-01	 1.368E+02
  45.900	 2.344E-02	 5.150E-03	-7.629E-06	-7.888E-02	-2.502E-01	-1.503E-01	 5.362E-01	 7.130E-01	-2.060E-01	 1.439E+02
  46.000	 2.462E-02	 4.364E-03	-7.629E-06	-6.756E-02	-2.160E-01	-9.233E-02	 5.476E-01	 6.196E-01	-2.454E-01	 1.511E+02
  46.100	 2.511E-02	 3.376E-03	-7.629E-06	-3.444E-02	-1.669E-01	-1.806E-02	 5.288E-01	 5.227E-01	-2.839E-01	 1.583E+02
  46.200	 2.469E-02	 2.303E-03	-7.629E-06	-2.812E-02	-9.691E-02	 8.884E-02	 4.868E-01	 4.651E-01	-3.129E-01	 1.654E+02
  46.300	 2.325E-02	 1.200E-03	 0.000E+00	-6.136E-02	-1.869E-02	 2.341E-01	 4.295E-01	 4.510E-01	-3.407E-01	 1.726E+02
  46.400	 2.100E-02	 7.733E-05	 0.000E+00	-1.113E-01	 6.399E-02	 3.834E-01	 3.761E-01	 4.450E-01	-3.674E-01	 1.798E+02
  46.500	 1.825E-02	-1.163E-03	 0.000E+00	-1.632E-01	 1.346E-01	 4.992E-01	 3.353E-01	 4.657E-01	-3.962E-01	 1.869E+02
  46.600	 1.548E-02	-2.653E-03	 0.000E+00	-2.149E-01	 1.895E-01	 5.805E-01	 3.132E-01	 5.151E-01	-4.203E-01	 1.941E+02
  46.700	 1.322E-02	-4.419E-03	 0.000E+00	-2.779E-01	 2.308E-01	 6.875E-01	 2.935E-01	 5.759E-01	-4.416E-01	 2.013E+02
  46.800	 1.155E-02	-6.333E-03	 0.000E+00	-3.534E-01	 2.647E-01	 8.063E-01	 2.607E-01	 6.325E-01	-4.619E-01	 2.084E+02
  46.900	 1.041E-02	-8.205E-03	 0.000E+00	-4.257E-01	 3.089E-01	 8.595E-01	 2.194E-01	 6.646E-01	-4.658E-01	 2.156E+02
  47.000	 1.005E-02	-9.882E-03	 0.000E+00	-4.641E-01	 3.656E-01	 8.761E-01	 1.616E-01	 6.820E-01	-4.525E-01	 2.228E+02
  47.100	 1.086E-02	-1.132E-02	 0.000E+00	-4.516E-01	 4.265E-01	 9.085E-01	 8.298E-02	 6.925E-01	-4.296E-01	 2.300E+02
  47.200	 1.273E-02	-1.259E-02	 0.000E+00	-4.118E-01	 4.783E-01	 9.563E-01	-5.648E-03	 6.993E-01	-3.957E-01	 2.372E+02
  47.300	 1.552E-02	-1.381E-02	 0.000E+00	-3.592E-01	 5.202E-01	 9.954E-01	-8.267E-02	 6.951E-01	-3.523E-01	 2.444E+02
  47.400	 1.912E-02	-1.501E-02	-7.629E-06	-2.974E-01	 5.421E-01	 1.017E+00	-1.484E-01	 6.640E-01	-3.109E-01	 2.516E+02
  47.500	 2.353E-02	-1.612E-02	-7.629E-06	-2.287E-01	 5.453E-01	 1.065E+00	-1.946E-01	 6.080E-01	-2.670E-01	 2.588E+02
  47.600	 2.870E-02	-1.703E-02	-7.629E-06	-1.308E-01	 5.294E-01	 1.164E+00	-2.270E-01	 5.163E-01	-2.263E-01	 2.660E+02
  47.700	 3.456E-02	-1.758E-02	-7.629E-06	-5.429E-03	 5.041E-01	 1.271E+00	-2.560E-01	 4.143E-01	-1.779E-01	 2.732E+02
  47.800	 4.075E-02	-1.762E-02	-1.526E-05	 1.246E-01	 4.790E-01	 1.327E+00	-2.935E-01	 2.734E-01	-1.196E-01	 2.804E+02
  47.900	 4.698E-02	-1.716E-02	-2.289E-05	 2.372E-01	 4.608E-01	 1.328E+00	-3.367E-01	 1.278E-01	-4.843E-02	 2.876E+02
  48.000	 5.309E-02	-1.628E-02	-2.289E-05	 3.453E-01	 4.408E-01	 1.264E+00	-3.915E-01	 2.100E-02	 2.249E-02	 2.949E+02
  48.100	 5.881E-02	-1.509E-02	-3.052E-05	 4.442E-01	 4.182E-01	 1.151E+00	-4.480E-01	-4.532E-02	 9.389E-02	 3.021E+02
  48.200	 6.356E-02	-1.377E-02	-3.052E-05	 5.057E-01	 3.896E-01	 1.020E+00	-4.853E-01	-1.037E-01	 1.623E-01	 3.094E+02
  48.300	 6.684E-02	-1.233E-02	-3.815E-05	 5.516E-01	 3.521E-01	 8.873E-01	-4.927E-01	-1.550E-01	 2.193E-01	 3.166E+02
  48.400	 6.859E-02	-1.065E-02	-3.815E-05	 6.005E-01	 3.018E-01	 7.562E-01	-4.718E-01	-1.748E-01	 2.664E-01	 3.239E+02
  48.500	 6.870E-02	-8.687E-03	-3.815E-05	 6.335E-01	 2.327E-01	 6.571E-01	-4.409E-01	-1.672E-01	 2.967E-01	 3.311E+02
  48.600	 6.707E-02	-6.457E-03	-3.052E-05	 6.676E-01	 1.684E-01	 5.887E-01	-3.987E-01	-1.507E-01	 3.261E-01	 3.384E+02
  48.700	 6.398E-02	-4.148E-03	-3.052E-05	 7.218E-01	 1.067E-01	 5.513E-01	-3.656E-01	-1.426E-01	 3.580E-01	 3.456E+02
  48.800	 5.975E-02	-1.945E-03	-3.052E-05	 8.069E-01	 4.437E-02	 5.439E-01	-3.541E-01	-1.486E-01	 3.961E-01	 3.529E+02
  48.900	 5.454E-02	-5.665E-05	-2.289E-05	 9.257E-01	-8.952E-03	 5.504E-01	-3.500E-01	-1.567E-01	 4.452E-01	 1.915E-01
  49.000	 4.857E-02	 1.359E-03	-1.526E-05	 1.045E+00	-6.020E-02	 5.333E-01	-3.475E-01	-1.367E-01	 4.933E-01	 7.470E+00
  49.100	 4.225E-02	 2.356E-03	-1.526E-05	 1.107E+00	-1.151E-01	 4.820E-01	-3.330E-01	-8.849E-02	 5.344E-01	 1.476E+01
  49.200	 3.599E-02	 3.003E-03	-7.629E-06	 1.114E+00	-1.754E-01	 4.301E-01	-2.964E-01	-2.753E-02	 5.590E-01	 2.205E+01
  49.300	 3.005E-02	 3.337E-03	-7.629E-06	 1.092E+00	-2.394E-01	 3.813E-01	-2.367E-01	 4.695E-02	 5.568E-01	 2.934E+01
  49.400	 2.464E-02	 3.387E-03	-7.629E-06	 1.059E+00	-2.986E-01	 3.081E-01	-1.520E-01	 1.511E-01	 5.304E-01	 3.665E+01
  49.500	 1.974E-02	 3.114E-03	 0.000E+00	 9.988E-01	-3.503E-01	 2.150E-01	-5.942E-02	 2.800E-01	 4.838E-01	 4.395E+01
  49.600	 1.538E-02	 2.438E-03	 0.000E+00	 9.277E-01	-3.847E-01	 1.540E-01	 2.719E-02	 3.921E-01	 4.336E-01	 5.127E+01
  49.700	 1.181E-02	 1.292E-03	 0.000E+00	 8.375E-01	-4.011E-01	 1.379E-01	 9.496E-02	 4.627E-01	 3.933E-01	 5.858E+01
  49.800	 9.311E-03	-3.146E-04	 0.000E+00	 7.620E-01	-4.095E-01	 1.292E-01	 1.365E-01	 4.934E-01	 3.637E-01	 6.591E+01
  49.900	 8.207E-03	-2.314E-03	 0.000E+00	 7.163E-01	-4.067E-01	 1.109E-01	 1.654E-01	 5.426E-01	 3.473E-01	 7.324E+01
  50.000	 8.560E-03	-4.476E-03	 0.000E+00	 6.907E-01	-4.100E-01	 9.285E-02	 1.839E-01	 6.264E-01	 3.249E-01	 8.057E+01
  50.100	 1.029E-02	-6.453E-03	 0.000E+00	 6.652E-01	-4.167E-01	 8.843E-02	 2.157E-01	 7.084E-01	 2.923E-01	 8.792E+01
  50.200	 1.336E-02	-8.124E-03	 0.000E+00	 6.447E-01	-4.257E-01	 9.174E-02	 2.710E-01	 7.664E-01	 2.420E-01	 9.526E+01
  50.300	 1.772E-02	-9.521E-03	 0.000E+00	 6.522E-01	-4.332E-01	 9.354E-02	 3.447E-01	 8.231E-01	 1.712E-01	 1.026E+02
  50.400	 2.336E-02	-1.073E-02	-7.629E-06	 6.795E-01	-4.246E-01	 8.156E-02	 4.282E-01	 9.013E-01	 8.741E-02	 1.100E+02
  50.500	 3.010E-02	-1.185E-02	-7.629E-06	 6.835E-01	-4.008E-01	 7.146E-02	 4.964E-01	 9.806E-01	-3.467E-03	 1.174E+02
  50.600	 3.765E-02	-1.293E-02	-1.526E-05	 6.769E-01	-3.571E-01	 8.469E-02	 5.376E-01	 1.033E+00	-8.202E-02	 1.247E+02
  50.700	 4.557E-02	-1.391E-02	-1.526E-05	 6.753E-01	-3.060E-01	 1.192E-01	 5.417E-01	 1.022E+00	-1.425E-01	 1.321E+02
  50.800	 5.334E-02	-1.469E-02	-2.289E-05	 6.412E-01	-2.547E-01	 1.388E-01	 5.165E-01	 9.789E-01	-1.860E-01	 1.395E+02
  50.900	 6.069E-02	-1.516E-02	-3.052E-05	 5.722E-01	-1.941E-01	 1.370E-01	 4.898E-01	 9.449E-01	-2.060E-01	 1.469E+02
  51.000	 6.721E-02	-1.518E-02	-3.815E-05	 4.600E-01	-1.443E-01	 1.628E-01	 4.605E-01	 9.024E-01	-2.276E-01	 1.543E+02
  51.100	 7.241E-02	-1.463E-02	-3.815E-05	 3.329E-01	-9.578E-02	 2.332E-01	 4.429E-01	 8.429E-01	-2.550E-01	 1.618E+02
  51.200	 7.578E-02	-1.355E-02	-4.578E-05	 2.226E-01	-4.688E-02	 3.095E-01	 4.376E-01	 7.791E-01	-2.978E-01	 1.692E+02
  51.300	 7.701E-02	-1.203E-02	-4.578E-05	 1.489E-01	 6.620E-03	 3.663E-01	 4.386E-01	 7.163E-01	-3.535E-01	 1.766E+02
  51.400	 7.600E-02	-1.010E-02	-4.578E-05	 9.535E-02	 6.880E-02	 4.004E-01	 4.344E-01	 6.557E-01	-4.094E-01	 1.840E+02
  51.500	 7.289E-02	-7.853E-03	-3.815E-05	 4.949E-02	 1.360E-01	 4.185E-01	 4.128E-01	 6.171E-01	-4.544E-01	 1.915E+02
  51.600	 6.791E-02	-5.359E-03	-3.815E-05	 1.381E-02	 2.074E-01	 4.361E-01	 3.719E-01	 6.038E-01	-4.705E-01	 1.989E+02
  51.700	 6.120E-02	-2.646E-03	-3.052E-05	-2.066E-02	 2.695E-01	 4.863E-01	 3.051E-01	 6.165E-01	-4.628E-01	 2.064E+02
  51.800	 5.298E-02	 1.507E-04	-2.289E-05	-6.911E-02	 3.190E-01	 5.250E-01	 2.223E-01	 6.594E-01	-4.393E-01	 2.138E+02
  51.900	 4.374E-02	 2.760E-03	-1.526E-05	-1.278E-01	 3.654E-01	 5.691E-01	 1.428E-01	 7.106E-01	-4.045E-01	 2.213E+02
  52.000	 3.411E-02	 4.933E-03	-7.629E-06	-1.673E-01	 4.070E-01	 6.325E-01	 7.350E-02	 7.531E-01	-3.773E-01	 2.287E+02
  52.100	 2.458E-02	 6.490E-03	-7.629E-06	-1.837E-01	 4.420E-01	 7.053E-01	 1.533E-02	 7.630E-01	-3.640E-01	 2.362E+02
  52.200	 1.554E-02	 7.328E-03	 0.000E+00	-1.870E-01	 4.795E-01	 7.716E-01	-2.535E-02	 7.385E-01	-3.540E-01	 2.436E+02
  52.300	 7.403E-03	 7.490E-03	 0.000E+00	-1.776E-01	 5.122E-01	 8.068E-01	-6.166E-02	 6.652E-01	-3.420E-01	 2.511E+02
  52.400	 6.102E-04	 7.221E-03	 0.000E+00	-1.402E-01	 5.338E-01	 8.262E-01	-1.044E-01	 5.437E-01	-3.160E-01	 2.586E+02
  52.500	-4.642E-03	 6.671E-03	 0.000E+00	-8.816E-02	 5.345E-01	 8.412E-01	-1.674E-01	 3.982E-01	-2.755E-01	 2.661E+02
  52.600	-8.410E-03	 5.866E-03	 0.000E+00	-5.218E-02	 5.244E-01	 8.377E-01	-2.394E-01	 2.108E-01	-2.057E-01	 2.736E+02
  52.700	-1.079E-02	 4.826E-03	 0.000E+00	-2.190E-02	 5.110E-01	 8.118E-01	-3.076E-01	 1.005E-02	-1.090E-01	 2.810E+02
  52.800	-1.192E-02	 3.450E-03	 0.000E+00	 2.394E-02	 4.778E-01	 7.616E-01	-3.780E-01	-1.734E-01	-1.544E-02	 2.885E+02
  52.900	-1.196E-02	 1.633E-03	 0.000E+00	 9.881E-02	 4.428E-01	 6.845E-01	-4.250E-01	-3.386E-01	 7.418E-02	 2.960E+02
  53.000	-1.117E-02	-6.640E-04	 0.000E+00	 1.804E-01	 4.026E-01	 6.009E-01	-4.494E-01	-4.687E-01	 1.408E-01	 3.035E+02
  53.100	-9.843E-03	-3.232E-03	 0.000E+00	 2.458E-01	 3.550E-01	 5.161E-01	-4.542E-01	-5.368E-01	 1.793E-01	 3.110E+02
  53.200	-8.163E-03	-5.836E-03	 0.000E+00	 2.960E-01	 3.101E-01	 4.340E-01	-4.398E-01	-5.500E-01	 2.071E-01	 3.185E+02
  53.300	-6.181E-03	-8.371E-03	 0.000E+00	 3.328E-01	 2.638E-01	 3.789E-01	-4.176E-01	-5.567E-01	 2.340E-01	 3.259E+02
  53.400	-3.739E-03	-1.059E-02	 0.000E+00	 4.020E-01	 2.218E-01	 3.512E-01	-3.926E-01	-5.683E-01	 2.774E-01	 3.334E+02
  53.500	-6.462E-04	-1.240E-02	 0.000E+00	 4.713E-01	 1.674E-01	 3.477E-01	-3.879E-01	-5.585E-01	 3.278E-01	 3.409E+02
  53.600	 2.934E-03	-1.378E-02	 0.000E+00	 5.062E-01	 1.034E-01	 3.379E-01	-3.997E-01	-5.324E-01	 3.857E-01	 3.484E+02
  53.700	 6.724E-03	-1.484E-02	 0.000E+00	 5.124E-01	 4.544E-02	 2.846E-01	-4.025E-01	-5.251E-01	 4.557E-01	 3.559E+02
  53.800	 1.050E-02	-1.561E-02	 0.000E+00	 5.204E-01	-2.139E-02	 1.958E-01	-3.984E-01	-5.381E-01	 5.099E-01	 3.321E+00
  53.900	 1.415E-02	-1.598E-02	 0.000E+00	 5.307E-01	-8.489E-02	 9.355E-02	-3.660E-01	-5.322E-01	 5.476E-01	 1.079E+01
  54.000	 1.733E-02	-1.583E-02	-7.629E-06	 5.556E-01	-1.492E-01	-1.670E-02	-3.090E-01	-4.730E-01	 5.547E-01	 1.826E+01
  54.100	 1.965E-02	-1.510E-02	-7.629E-06	 6.010E-01	-2.081E-01	-1.370E-01	-2.271E-01	-3.799E-01	 5.343E-01	 2.573E+01
  54.200	 2.097E-02	-1.378E-02	-7.629E-06	 6.377E-01	-2.588E-01	-2.404E-01	-1.339E-01	-2.751E-01	 4.998E-01	 3.320E+01
  54.300	 2.159E-02	-1.204E-02	-7.629E-06	 6.635E-01	-3.088E-01	-2.993E-01	-5.044E-02	-1.490E-01	 4.590E-01	 4.065E+01
  54.400	 2.179E-02	-1.010E-02	-7.629E-06	 6.908E-01	-3.485E-01	-3.071E-01	 1.891E-02	 1.041E-02	 4.317E-01	 4.812E+01
  54.500	 2.161E-02	-8.116E-03	-7.629E-06	 7.233E-01	-3.830E-01	-3.013E-01	 6.177E-02	 1.827E-01	 4.128E-01	 5.557E+01
  54.600	 2.124E-02	-6.132E-03	 0.000E+00	 7.442E-01	-4.039E-01	-3.067E-01	 9.413E-02	 3.353E-01	 4.065E-01	 6.304E+01
  54.700	 2.091E-02	-4.115E-03	 0.000E+00	 7.516E-01	-4.182E-01	-3.039E-01	 1.243E-01	 4.425E-01	 3.974E-01	 7.050E+01
  54.800	 2.084E-02	-1.959E-03	 0.000E+00	 7.376E-01	-4.312E-01	-3.007E-01	 1.608E-01	 5.082E-01	 3.675E-01	 7.796E+01
  54.900	 2.107E-02	 3.759E-04	 0.000E+00	 6.931E-01	-4.410E-01	-3.128E-01	 2.147E-01	 5.542E-01	 3.129E-01	 8.543E+01
  55.000	 2.157E-02	 2.695E-03	 0.000E+00	 6.089E-01	-4.432E-01	-3.440E-01	 2.891E-01	 5.519E-01	 2.408E-01	 9.291E+01
  55.100	 2.207E-02	 4.810E-03	-7.629E-06	 4.898E-01	-4.376E-01	-3.784E-01	 3.712E-01	 5.012E-01	 1.605E-01	 1.004E+02
  55.200	 2.226E-02	 6.470E-03	-7.629E-06	 3.420E-01	-4.220E-01	-4.026E-01	 4.420E-01	 4.522E-01	 8.043E-02	 1.079E+02
  55.300	 2.172E-02	 7.470E-03	 0.000E+00	 1.911E-01	-3.991E-01	-4.169E-01	 4.857E-01	 4.031E-01	 1.115E-02	 1.153E+02
  55.400	 2.009E-02	 7.837E-03	 0.000E+00	 5.879E-02	-3.650E-01	-4.188E-01	 5.025E-01	 3.582E-01	-3.848E-02	 1.228E+02
  55.500	 1.721E-02	 7.750E-03	 0.000E+00	-5.302E-02	-3.221E-01	-3.924E-01	 4.937E-01	 3.241E-01	-7.563E-02	 1.303E+02
  55.600	 1.314E-02	 7.366E-03	 0.000E+00	-1.487E-01	-2.723E-01	-3.255E-01	 4.710E-01	 3.168E-01	-1.093E-01	 1.377E+02
  55.700	 8.034E-03	 6.789E-03	 0.000E+00	-2.465E-01	-2.135E-01	-2.350E-01	 4.541E-01	 3.373E-01	-1.456E-01	 1.452E+02
  55.800	 2.292E-03	 6.092E-03	 0.000E+00	-3.246E-01	-1.528E-01	-1.347E-01	 4.541E-01	 3.665E-01	-1.923E-01	 1.526E+02
  55.900	-3.638E-03	 5.252E-03	 0.000E+00	-3.765E-01	-1.019E-01	-3.573E-02	 4.624E-01	 4.074E-01	-2.600E-01	 1.601E+02
  56.000	-9.269E-03	 4.109E-03	 0.000E+00	-4.419E-01	-4.764E-02	 6.146E-02	 4.775E-01	 4.578E-01	-3.290E-01	 1.675E+02
  56.100	-1.422E-02	 2.574E-03	 0.000E+00	-5.191E-01	 6.865E-03	 1.596E-01	 4.808E-01	 5.313E-01	-3.938E-01	 1.749E+02
  56.200	-1.821E-02	 7.289E-04	 0.000E+00	-5.837E-01	 6.674E-02	 2.412E-01	 4.566E-01	 5.865E-01	-4.476E-01	 1.824E+02
  56.300	-2.115E-02	-1.313E-03	 0.000E+00	-6.342E-01	 1.399E-01	 2.871E-01	 4.097E-01	 5.859E-01	-4.744E-01	 1.898E+02
  56.400	-2.302E-02	-3.450E-03	-7.629E-06	-6.460E-01	 2.153E-01	 3.068E-01	 3.435E-01	 5.441E-01	-4.735E-01	 1.972E+02
  56.500	-2.379E-02	-5.544E-03	-7.629E-06	-6.136E-01	 2.805E-01	 3.148E-01	 2.623E-01	 4.572E-01	-4.558E-01	 2.047E+02
  56.600	-2.357E-02	-7.564E-03	-7.629E-06	-5.658E-01	 3.318E-01	 2.966E-01	 1.833E-01	 3.722E-01	-4.316E-01	 2.121E+02
  56.700	-2.260E-02	-9.563E-03	-7.629E-06	-5.279E-01	 3.688E-01	 2.761E-01	 1.213E-01	 3.013E-01	-4.046E-01	 2.195E+02
  56.800	-2.092E-02	-1.145E-02	-7.629E-06	-4.912E-01	 3.955E-01	 2.656E-01	 8.402E-02	 2.400E-01	-3.802E-01	 2.269E+02
  56.900	-1.845E-02	-1.303E-02	-7.629E-06	-4.384E-01	 4.127E-01	 2.752E-01	 5.640E-02	 1.902E-01	-3.685E-01	 2.343E+02
  57.000	-1.523E-02	-1.415E-02	 0.000E+00	-3.718E-01	 4.306E-01	 3.214E-01	 2.688E-02	 1.556E-01	-3.615E-01	 2.418E+02
  57.100	-1.148E-02	-1.466E-02	 0.000E+00	-3.164E-01	 4.566E-01	 3.924E-01	-1.291E-02	 1.269E-01	-3.460E-01	 2.492E+02
  57.200	-7.333E-03	-1.440E-02	 0.000E+00	-2.797E-01	 4.862E-01	 4.925E-01	-7.732E-02	 8.967E-02	-3.157E-01	 2.566E+02
  57.300	-2.658E-03	-1.341E-02	 0.000E+00	-2.353E-01	 5.171E-01	 6.111E-01	-1.611E-01	 5.265E-02	-2.609E-01	 2.640E+02
  57.400	 2.506E-03	-1.184E-02	 0.000E+00	-1.705E-01	 5.345E-01	 7.034E-01	-2.523E-01	 8.307E-03	-1.896E-01	 2.714E+02
  57.500	 8.114E-03	-9.912E-03	 0.000E+00	-1.031E-01	 5.358E-01	 7.602E-01	-3.278E-01	-6.921E-02	-1.046E-01	 2.788E+02
  57.600	 1.409E-02	-7.822E-03	 0.000E+00	-4.778E-02	 5.144E-01	 7.937E-01	-3.830E-01	-1.625E-01	-2.517E-02	 2.862E+02
  57.700	 2.008E-02	-5.736E-03	 0.000E+00	-5.567E-03	 4.688E-01	 8.160E-01	-4.172E-01	-2.601E-01	 3.682E-02	 2.936E+02
  57.800	 2.562E-02	-3.721E-03	-7.629E-06	 2.164E-02	 4.187E-01	 8.045E-01	-4.218E-01	-3.743E-01	 8.949E-02	 3.011E+02
  57.900	 3.033E-02	-1.824E-03	-7.629E-06	 6.069E-02	 3.669E-01	 7.603E-01	-4.132E-01	-4.770E-01	 1.319E-01	 3.085E+02
  58.000	 3.392E-02	-5.234E-05	-7.629E-06	 1.078E-01	 3.180E-01	 6.805E-01	-4.082E-01	-5.419E-01	 1.718E-01	 3.159E+02
  58.100	 3.603E-02	 1.581E-03	-7.629E-06	 1.259E-01	 2.799E-01	 5.791E-01	-4.109E-01	-5.621E-01	 2.202E-01	 3.233E+02
  58.200	 3.639E-02	 2.974E-03	-7.629E-06	 1.210E-01	 2.457E-01	 4.580E-01	-4.249E-01	-5.462E-01	 2.747E-01	 3.307E+02
  58.300	 3.491E-02	 4.122E-03	-7.629E-06	 1.292E-01	 2.093E-01	 3.334E-01	-4.435E-01	-5.018E-01	 3.333E-01	 3.381E+02
  58.400	 3.153E-02	 5.041E-03	-7.629E-06	 1.784E-01	 1.616E-01	 2.370E-01	-4.533E-01	-4.453E-01	 3.883E-01	 3.455E+02
  58.500	 2.633E-02	 5.760E-03	-7.629E-06	 2.364E-01	 1.011E-01	 1.749E-01	-4.426E-01	-3.989E-01	 4.320E-01	 3.529E+02
  58.600	 1.959E-02	 6.341E-03	 0.000E+00	 2.479E-01	 3.472E-02	 1.328E-01	-4.004E-01	-3.671E-01	 4.657E-01	 2.475E-01
  58.700	 1.192E-02	 6.750E-03	 0.000E+00	 2.702E-01	-3.682E-02	 8.868E-02	-3.374E-01	-3.324E-01	 4.887E-01	 7.631E+00
  58.800	 3.779E-03	 6.848E-03	 0.000E+00	 3.371E-01	-1.166E-01	 7.340E-02	-2.729E-01	-2.938E-01	 4.932E-01	 1.501E+01
  58.900	-4.728E-03	 6.532E-03	 0.000E+00	 4.285E-01	-1.905E-01	 5.511E-02	-2.143E-01	-2.686E-01	 4.903E-01	 2.238E+01
  59.000	-1.324E-02	 5.686E-03	 0.000E+00	 5.082E-01	-2.436E-01	-8.922E-03	-1.577E-01	-2.536E-01	 4.958E-01	 2.975E+01
  59.100	-2.109E-02	 4.340E-03	 0.000E+00	 5.634E-01	-2.831E-01	-6.851E-02	-1.139E-01	-2.138E-01	 5.012E-01	 3.712E+01
  59.200	-2.764E-02	 2.667E-03	-7.629E-06	 5.902E-01	-3.155E-01	-9.794E-02	-8.144E-02	-1.301E-01	 5.003E-01	 4.449E+01
  59.300	-3.254E-02	 7.839E-04	-7.629E-06	 6.119E-01	-3.441E-01	-1.203E-01	-4.392E-02	-4.575E-02	 4.890E-01	 5.187E+01
  59.400	-3.553E-02	-1.170E-03	-7.629E-06	 6.496E-01	-3.734E-01	-1.582E-01	 1.062E-02	 2.207E-02	 4.651E-01	 5.924E+01
  59.500	-3.654E-02	-2.984E-03	-7.629E-06	 6.826E-01	-4.072E-01	-1.989E-01	 8.073E-02	 7.017E-02	 4.219E-01	 6.660E+01
  59.600	-3.544E-02	-4.622E-03	-7.629E-06	 6.729E-01	-4.375E-01	-2.098E-01	 1.632E-01	 1.171E-01	 3.670E-01	 7.398E+01
  59.700	-3.221E-02	-6.207E-03	-7.629E-06	 6.347E-01	-4.609E-01	-1.853E-01	 2.457E-01	 1.943E-01	 3.068E-01	 8.135E+01
  59.800	-2.707E-02	-7.773E-03	-7.629E-06	 6.026E-01	-4.673E-01	-1.561E-01	 3.187E-01	 2.761E-01	 2.496E-01	 8.872E+01
  59.900	-2.022E-02	-9.278E-03	-7.629E-06	 5.879E-01	-4.572E-01	-1.354E-01	 3.707E-01	 3.341E-01	 1.976E-01	 9.610E+01
  60.000	-1.170E-02	-1.065E-02	 0.000E+00	 5.845E-01	-4.330E-01	-1.037E-01	 3.996E-01	 3.993E-01	 1.465E-01	 1.035E+02
  60.100	-1.592E-03	-1.173E-02	 0.000E+00	 5.698E-01	-3.955E-01	-5.641E-02	 4.142E-01	 4.956E-01	 9.559E-02	 1.109E+02
  60.200	 9.781E-03	-1.237E-02	 0.000E+00	 5.505E-01	-3.543E-01	-5.864E-03	 4.200E-01	 5.881E-01	 4.075E-02	 1.183E+02
  60.300	 2.207E-02	-1.254E-02	-7.629E-06	 5.260E-01	-3.134E-01	 3.607E-02	 4.334E-01	 6.548E-01	-1.620E-02	 1.256E+02
  60.400	 3.495E-02	-1.232E-02	-7.629E-06	 4.901E-01	-2.705E-01	 5.471E-02	 4.645E-01	 6.957E-01	-7.333E-02	 1.331E+02
  60.500	 4.796E-02	-1.180E-02	-1.526E-05	 4.359E-01	-2.354E-01	 5.197E-02	 4.998E-01	 7.242E-01	-1.361E-01	 1.405E+02
  60.600	 6.050E-02	-1.103E-02	-3.052E-05	 3.496E-01	-2.038E-01	 5.023E-02	 5.285E-01	 7.416E-01	-2.006E-01	 1.479E+02
  60.700	 7.187E-02	-1.005E-02	-3.815E-05	 2.328E-01	-1.658E-01	 5.993E-02	 5.433E-01	 7.492E-01	-2.613E-01	 1.553E+02
  60.800	 8.136E-02	-8.754E-03	-5.341E-05	 9.180E-02	-1.121E-01	 6.578E-02	 5.393E-01	 7.416E-01	-3.099E-01	 1.627E+02
  60.900	 8.850E-02	-7.056E-03	-6.104E-05	-5.468E-02	-4.462E-02	 9.560E-02	 5.105E-01	 7.100E-01	-3.447E-01	 1.702E+02
  61.000	 9.293E-02	-5.041E-03	-6.866E-05	-1.957E-01	 3.195E-02	 1.662E-01	 4.561E-01	 6.832E-01	-3.715E-01	 1.776E+02
  61.100	 9.441E-02	-2.883E-03	-6.866E-05	-3.314E-01	 1.180E-01	 2.545E-01	 3.943E-01	 6.605E-01	-3.904E-01	 1.850E+02
  61.200	 9.271E-02	-7.916E-04	-6.866E-05	-4.575E-01	 1.965E-01	 3.453E-01	 3.296E-01	 6.253E-01	-4.072E-01	 1.925E+02
  61.300	 8.787E-02	 1.028E-03	-6.104E-05	-5.469E-01	 2.601E-01	 4.227E-01	 2.761E-01	 5.577E-01	-4.213E-01	 1.999E+02
  61.400	 8.024E-02	 2.369E-03	-4.578E-05	-5.733E-01	 3.093E-01	 5.005E-01	 2.371E-01	 4.737E-01	-4.317E-01	 2.073E+02
  61.500	 7.007E-02	 3.179E-03	-3.815E-05	-5.448E-01	 3.428E-01	 5.808E-01	 2.018E-01	 3.727E-01	-4.378E-01	 2.148E+02
  61.600	 5.761E-02	 3.578E-03	-2.289E-05	-4.808E-01	 3.712E-01	 6.399E-01	 1.680E-01	 2.538E-01	-4.328E-01	 2.222E+02
  61.700	 4.331E-02	 3.665E-03	-1.526E-05	-3.903E-01	 4.000E-01	 6.519E-01	 1.206E-01	 1.189E-01	-4.159E-01	 2.297E+02
  61.800	 2.786E-02	 3.588E-03	-7.629E-06	-2.750E-01	 4.365E-01	 6.260E-01	 5.801E-02	-3.738E-02	-3.835E-01	 2.371E+02
  61.900	 1.197E-02	 3.405E-03	 0.000E+00	-1.419E-01	 4.703E-01	 5.772E-01	-1.791E-02	-2.029E-01	-3.364E-01	 2.445E+02
  62.000	-3.604E-03	 3.063E-03	 0.000E+00	 2.008E-03	 4.917E-01	 5.309E-01	-9.794E-02	-3.864E-01	-2.798E-01	 2.520E+02
  62.100	-1.821E-02	 2.513E-03	 0.000E+00	 1.372E-01	 5.027E-01	 4.875E-01	-1.688E-01	-5.594E-01	-2.189E-01	 2.594E+02
  62.200	-3.157E-02	 1.746E-03	-7.629E-06	 2.235E-01	 4.930E-01	 4.145E-01	-2.307E-01	-6.863E-01	-1.666E-01	 2.668E+02
  62.300	-4.343E-02	 7.393E-04	-1.526E-05	 2.448E-01	 4.756E-01	 3.421E-01	-2.704E-01	-7.851E-01	-1.160E-01	 2.743E+02
  62.400	-5.323E-02	-5.690E-04	-2.289E-05	 2.354E-01	 4.559E-01	 3.399E-01	-2.942E-01	-8.787E-01	-6.442E-02	 2.817E+02
  62.500	-6.045E-02	-2.080E-03	-3.052E-05	 2.330E-01	 4.281E-01	 3.797E-01	-3.185E-01	-9.502E-01	-1.639E-02	 2.891E+02
  62.600	-6.482E-02	-3.608E-03	-3.052E-05	 2.371E-01	 4.048E-01	 3.859E-01	-3.455E-01	-9.795E-01	 3.511E-02	 2.966E+02
  62.700	-6.624E-02	-5.204E-03	-3.052E-05	 2.352E-01	 3.814E-01	 3.592E-01	-3.820E-01	-9.792E-01	 8.994E-02	 3.040E+02
  62.800	-6.474E-02	-6.850E-03	-3.052E-05	 2.286E-01	 3.602E-01	 3.049E-01	-4.219E-01	-9.846E-01	 1.529E-01	 3.114E+02
  62.900	-6.044E-02	-8.499E-03	-3.052E-05	 2.199E-01	 3.309E-01	 2.350E-01	-4.585E-01	-9.853E-01	 2.192E-01	 3.188E+02
  63.000	-5.371E-02	-1.012E-02	-2.289E-05	 2.201E-01	 2.822E-01	 1.569E-01	-4.850E-01	-9.680E-01	 2.796E-01	 3.262E+02
  63.100	-4.504E-02	-1.160E-02	-1.526E-05	 2.418E-01	 2.277E-01	 6.814E-02	-4.795E-01	-9.354E-01	 3.436E-01	 3.336E+02
  63.200	-3.506E-02	-1.280E-02	-7.629E-06	 2.927E-01	 1.565E-01	-3.647E-02	-4.519E-01	-8.855E-01	 3.912E-01	 3.410E+02
  63.300	-2.419E-02	-1.362E-02	-7.629E-06	 3.454E-01	 8.038E-02	-1.209E-01	-4.055E-01	-8.186E-01	 4.231E-01	 3.484E+02
  63.400	-1.278E-02	-1.405E-02	 0.000E+00	 3.922E-01	 8.918E-03	-1.739E-01	-3.531E-01	-7.333E-01	 4.440E-01	 3.558E+02
  63.500	-1.188E-03	-1.416E-02	 0.000E+00	 4.525E-01	-5.531E-02	-2.149E-01	-3.035E-01	-6.434E-01	 4.568E-01	 3.141E+00
  63.600	 1.021E-02	-1.397E-02	 0.000E+00	 5.054E-01	-1.021E-01	-2.673E-01	-2.628E-01	-5.545E-01	 4.710E-01	 1.051E+01
  63.700	 2.115E-02	-1.353E-02	-7.629E-06	 5.605E-01	-1.409E-01	-3.193E-01	-2.364E-01	-4.584E-01	 4.861E-01	 1.788E+01
  63.800	 3.132E-02	-1.279E-02	-7.629E-06	 6.400E-01	-1.817E-01	-3.651E-01	-2.151E-01	-3.501E-01	 5.032E-01	 2.525E+01
  63.900	 4.027E-02	-1.165E-02	-1.526E-05	 7.146E-01	-2.269E-01	-4.014E-01	-1.857E-01	-2.440E-01	 5.166E-01	 3.261E+01
  64.000	 4.779E-02	-1.011E-02	-1.526E-05	 7.949E-01	-2.788E-01	-4.399E-01	-1.355E-01	-1.387E-01	 5.181E-01	 3.997E+01
  64.100	 5.405E-02	-8.239E-03	-2.289E-05	 8.563E-01	-3.324E-01	-4.819E-01	-5.784E-02	-1.895E-02	 5.070E-01	 4.733E+01
  64.200	 5.901E-02	-6.140E-03	-3.052E-05	 8.744E-01	-3.861E-01	-5.039E-01	 3.055E-02	 1.183E-01	 4.738E-01	 5.470E+01
  64.300	 6.252E-02	-3.984E-03	-3.052E-05	 8.683E-01	-4.287E-01	-5.100E-01	 1.173E-01	 2.367E-01	 4.265E-01	 6.206E+01
  64.400	 6.442E-02	-2.023E-03	-3.052E-05	 8.426E-01	-4.536E-01	-5.168E-01	 1.913E-01	 3.202E-01	 3.737E-01	 6.943E+01
  64.500	 6.459E-02	-3.978E-04	-3.052E-05	 7.937E-01	-4.589E-01	-5.281E-01	 2.463E-01	 3.845E-01	 3.210E-01	 7.680E+01
  64.600	 6.297E-02	 8.368E-04	-3.052E-05	 7.004E-01	-4.476E-01	-5.494E-01	 2.806E-01	 4.438E-01	 2.688E-01	 8.416E+01
  64.700	 5.960E-02	 1.721E-03	-3.052E-05	 5.616E-01	-4.254E-01	-5.618E-01	 3.059E-01	 5.126E-01	 2.228E-01	 9.154E+01
  64.800	 5.454E-02	 2.332E-03	-2.289E-05	 3.886E-01	-4.021E-01	-5.466E-01	 3.326E-01	 5.593E-01	 1.787E-01	 9.891E+01
  64.900	 4.780E-02	 2.807E-03	-1.526E-05	 2.123E-01	-3.847E-01	-5.060E-01	 3.649E-01	 5.772E-01	 1.295E-01	 1.063E+02
  65.000	 3.955E-02	 3.118E-03	-1.526E-05	 2.738E-02	-3.690E-01	-4.430E-01	 4.070E-01	 5.720E-01	 7.440E-02	 1.136E+02
  65.100	 3.014E-02	 3.157E-03	-7.629E-06	-1.293E-01	-3.530E-01	-3.713E-01	 4.545E-01	 5.492E-01	 1.025E-02	 1.210E+02
  65.200	 1.991E-02	 2.900E-03	 0.000E+00	-2.496E-01	-3.273E-01	-3.038E-01	 4.992E-01	 5.213E-01	-6.043E-02	 1.284E+02
  65.300	 9.183E-03	 2.378E-03	 0.000E+00	-3.514E-01	-2.870E-01	-2.316E-01	 5.280E-01	 5.056E-01	-1.299E-01	 1.357E+02
  65.400	-1.590E-03	 1.613E-03	 0.000E+00	-4.525E-01	-2.308E-01	-1.490E-01	 5.343E-01	 4.823E-01	-1.896E-01	 1.431E+02
  65.500	-1.194E-02	 7.251E-04	 0.000E+00	-5.289E-01	-1.645E-01	-5.879E-02	 5.197E-01	 4.451E-01	-2.365E-01	 1.505E+02
  65.600	-2.152E-02	-2.381E-04	 0.000E+00	-5.621E-01	-1.014E-01	 1.865E-02	 4.837E-01	 4.294E-01	-2.808E-01	 1.578E+02
  65.700	-3.000E-02	-1.333E-03	-7.629E-06	-5.781E-01	-3.727E-02	 5.754E-02	 4.462E-01	 4.510E-01	-3.161E-01	 1.652E+02
  65.800	-3.692E-02	-2.642E-03	-7.629E-06	-6.037E-01	 2.619E-02	 8.517E-02	 4.180E-01	 4.841E-01	-3.437E-01	 1.725E+02
  65.900	-4.191E-02	-4.141E-03	-1.526E-05	-6.350E-01	 8.033E-02	 1.107E-01	 3.942E-01	 5.101E-01	-3.748E-01	 1.799E+02
  66.000	-4.473E-02	-5.712E-03	-1.526E-05	-6.398E-01	 1.285E-01	 1.219E-01	 3.797E-01	 4.766E-01	-4.071E-01	 1.872E+02
  66.100	-4.531E-02	-7.311E-03	-1.526E-05	-6.305E-01	 1.741E-01	 1.235E-01	 3.667E-01	 3.961E-01	-4.363E-01	 1.946E+02
  66.200	-4.380E-02	-8.744E-03	-1.526E-05	-6.414E-01	 2.196E-01	 1.318E-01	 3.419E-01	 3.181E-01	-4.581E-01	 2.019E+02
  66.300	-4.038E-02	-9.833E-03	-1.526E-05	-6.655E-01	 2.692E-01	 1.480E-01	 2.973E-01	 2.631E-01	-4.646E-01	 2.093E+02
  66.400	-3.519E-02	-1.057E-02	-7.629E-06	-6.796E-01	 3.250E-01	 1.725E-01	 2.299E-01	 2.065E-01	-4.538E-01	 2.166E+02
  66.500	-2.846E-02	-1.096E-02	-7.629E-06	-6.779E-01	 3.873E-01	 2.350E-01	 1.466E-01	 1.302E-01	-4.260E-01	 2.239E+02
  66.600	-2.058E-02	-1.108E-02	-7.629E-06	-6.516E-01	 4.424E-01	 3.349E-01	 5.494E-02	 4.285E-02	-3.916E-01	 2.313E+02
  66.700	-1.197E-02	-1.105E-02	 0.000E+00	-6.047E-01	 4.824E-01	 4.524E-01	-3.022E-02	-5.786E-02	-3.560E-01	 2.386E+02
  66.800	-2.893E-03	-1.096E-02	 0.000E+00	-5.411E-01	 5.103E-01	 5.451E-01	-9.058E-02	-1.607E-01	-3.134E-01	 2.459E+02
  66.900	 6.354E-03	-1.078E-02	 0.000E+00	-4.650E-01	 5.133E-01	 5.813E-01	-1.342E-01	-2.746E-01	-2.753E-01	 2.533E+02
[...]
 783.300	-1.929E-02	 5.776E-03	 0.000E+00	 1.284E+00	-1.332E-02	 7.517E-01	-3.959E-01	 1.455E-01	 3.927E-01	 3.537E+02
 783.400	-2.406E-02	 4.183E-03	-7.629E-06	 1.431E+00	-7.464E-02	 7.323E-01	-3.920E-01	 1.740E-01	 4.498E-01	 8.593E-01
 783.500	-2.616E-02	 2.023E-03	-7.629E-06	 1.565E+00	-1.331E-01	 7.030E-01	-3.859E-01	 2.094E-01	 4.930E-01	 7.996E+00
 783.600	-2.556E-02	-4.654E-04	-7.629E-06	 1.630E+00	-1.857E-01	 6.621E-01	-3.641E-01	 2.599E-01	 5.153E-01	 1.514E+01
 783.700	-2.213E-02	-3.067E-03	 0.000E+00	 1.620E+00	-2.312E-01	 6.114E-01	-3.136E-01	 3.127E-01	 5.176E-01	 2.228E+01
 783.800	-1.578E-02	-5.590E-03	 0.000E+00	 1.590E+00	-2.780E-01	 5.543E-01	-2.388E-01	 3.537E-01	 4.989E-01	 2.944E+01
 783.900	-6.686E-03	-7.899E-03	 0.000E+00	 1.560E+00	-3.295E-01	 4.923E-01	-1.550E-01	 3.851E-01	 4.669E-01	 3.659E+01
 784.000	 4.447E-03	-1.005E-02	 0.000E+00	 1.511E+00	-3.805E-01	 4.231E-01	-7.472E-02	 4.124E-01	 4.324E-01	 4.376E+01
 784.100	 1.673E-02	-1.211E-02	 0.000E+00	 1.468E+00	-4.228E-01	 3.552E-01	-5.619E-03	 4.223E-01	 4.115E-01	 5.092E+01
 784.200	 2.937E-02	-1.408E-02	-7.629E-06	 1.461E+00	-4.597E-01	 2.926E-01	 4.312E-02	 4.195E-01	 3.994E-01	 5.809E+01
 784.300	 4.178E-02	-1.586E-02	-1.526E-05	 1.481E+00	-4.855E-01	 2.436E-01	 7.768E-02	 4.372E-01	 3.915E-01	 6.526E+01
 784.400	 5.347E-02	-1.727E-02	-2.289E-05	 1.490E+00	-5.002E-01	 2.162E-01	 1.087E-01	 5.213E-01	 3.770E-01	 7.244E+01
 784.500	 6.389E-02	-1.800E-02	-3.052E-05	 1.443E+00	-5.059E-01	 1.913E-01	 1.474E-01	 6.421E-01	 3.424E-01	 7.961E+01
 784.600	 7.249E-02	-1.781E-02	-3.815E-05	 1.331E+00	-5.020E-01	 1.633E-01	 2.011E-01	 7.542E-01	 2.862E-01	 8.679E+01
 784.700	 7.904E-02	-1.674E-02	-4.578E-05	 1.199E+00	-4.913E-01	 1.338E-01	 2.682E-01	 8.536E-01	 2.097E-01	 9.397E+01
 784.800	 8.337E-02	-1.496E-02	-5.341E-05	 1.085E+00	-4.744E-01	 9.737E-02	 3.413E-01	 9.549E-01	 1.220E-01	 1.012E+02
 784.900	 8.522E-02	-1.273E-02	-5.341E-05	 9.787E-01	-4.513E-01	 5.223E-02	 4.062E-01	 1.070E+00	 3.418E-02	 1.083E+02
 785.000	 8.439E-02	-1.033E-02	-5.341E-05	 8.688E-01	-4.225E-01	 8.665E-03	 4.534E-01	 1.194E+00	-4.136E-02	 1.155E+02
 785.100	 8.100E-02	-7.927E-03	-5.341E-05	 7.525E-01	-3.861E-01	-7.669E-03	 4.826E-01	 1.315E+00	-9.681E-02	 1.227E+02
 785.200	 7.525E-02	-5.531E-03	-4.578E-05	 6.411E-01	-3.516E-01	 1.888E-02	 4.875E-01	 1.422E+00	-1.426E-01	 1.299E+02
 785.300	 6.752E-02	-3.126E-03	-3.815E-05	 5.420E-01	-3.122E-01	 8.493E-02	 4.795E-01	 1.516E+00	-1.823E-01	 1.371E+02
 785.400	 5.833E-02	-7.502E-04	-2.289E-05	 4.337E-01	-2.625E-01	 1.930E-01	 4.702E-01	 1.615E+00	-2.247E-01	 1.443E+02
 785.500	 4.826E-02	 1.584E-03	-1.526E-05	 3.335E-01	-2.028E-01	 3.249E-01	 4.638E-01	 1.709E+00	-2.779E-01	 1.515E+02
 785.600	 3.792E-02	 3.803E-03	-7.629E-06	 2.722E-01	-1.378E-01	 4.580E-01	 4.595E-01	 1.768E+00	-3.415E-01	 1.587E+02
 785.700	 2.791E-02	 5.693E-03	-7.629E-06	 2.685E-01	-7.364E-02	 5.847E-01	 4.536E-01	 1.771E+00	-4.088E-01	 1.659E+02
 785.800	 1.864E-02	 7.044E-03	 0.000E+00	 2.906E-01	-8.732E-03	 6.641E-01	 4.431E-01	 1.720E+00	-4.648E-01	 1.731E+02
 785.900	 1.053E-02	 7.766E-03	 0.000E+00	 2.994E-01	 5.276E-02	 7.090E-01	 4.245E-01	 1.669E+00	-5.011E-01	 1.803E+02
 786.000	 3.795E-03	 7.873E-03	 0.000E+00	 3.017E-01	 1.005E-01	 7.294E-01	 3.877E-01	 1.648E+00	-5.211E-01	 1.875E+02
 786.100	-1.427E-03	 7.513E-03	 0.000E+00	 3.191E-01	 1.453E-01	 7.227E-01	 3.446E-01	 1.612E+00	-5.167E-01	 1.948E+02
 786.200	-5.093E-03	 6.821E-03	 0.000E+00	 3.304E-01	 1.865E-01	 7.226E-01	 2.931E-01	 1.546E+00	-5.014E-01	 2.020E+02
 786.300	-7.082E-03	 5.844E-03	 0.000E+00	 3.094E-01	 2.301E-01	 7.726E-01	 2.350E-01	 1.491E+00	-4.843E-01	 2.092E+02
 786.400	-7.153E-03	 4.579E-03	 0.000E+00	 2.757E-01	 2.812E-01	 8.846E-01	 1.750E-01	 1.446E+00	-4.739E-01	 2.165E+02
 786.500	-5.230E-03	 3.014E-03	 0.000E+00	 2.546E-01	 3.364E-01	 1.053E+00	 1.083E-01	 1.374E+00	-4.745E-01	 2.237E+02
 786.600	-1.450E-03	 1.161E-03	 0.000E+00	 2.395E-01	 3.969E-01	 1.246E+00	 4.253E-02	 1.249E+00	-4.706E-01	 2.309E+02
 786.700	 4.003E-03	-9.141E-04	 0.000E+00	 2.287E-01	 4.489E-01	 1.411E+00	-2.252E-02	 1.106E+00	-4.555E-01	 2.382E+02
 786.800	 1.123E-02	-3.071E-03	 0.000E+00	 2.342E-01	 4.865E-01	 1.537E+00	-8.761E-02	 9.853E-01	-4.180E-01	 2.455E+02
 786.900	 2.028E-02	-5.176E-03	 0.000E+00	 2.670E-01	 5.020E-01	 1.623E+00	-1.561E-01	 8.613E-01	-3.596E-01	 2.527E+02
 787.000	 3.064E-02	-7.134E-03	-7.629E-06	 3.189E-01	 4.929E-01	 1.642E+00	-2.242E-01	 7.345E-01	-2.903E-01	 2.600E+02
 787.100	 4.159E-02	-8.957E-03	-1.526E-05	 3.379E-01	 4.758E-01	 1.629E+00	-2.847E-01	 6.183E-01	-2.153E-01	 2.673E+02
 787.200	 5.250E-02	-1.071E-02	-2.289E-05	 3.032E-01	 4.635E-01	 1.659E+00	-3.391E-01	 4.984E-01	-1.425E-01	 2.745E+02
 787.300	 6.293E-02	-1.241E-02	-3.052E-05	 2.738E-01	 4.567E-01	 1.776E+00	-3.866E-01	 3.589E-01	-7.987E-02	 2.818E+02
 787.400	 7.249E-02	-1.400E-02	-3.815E-05	 3.104E-01	 4.519E-01	 1.894E+00	-4.258E-01	 2.516E-01	-3.417E-02	 2.891E+02
 787.500	 8.073E-02	-1.536E-02	-5.341E-05	 3.855E-01	 4.452E-01	 1.954E+00	-4.617E-01	 2.051E-01	 2.360E-03	 2.964E+02
 787.600	 8.727E-02	-1.638E-02	-6.104E-05	 4.655E-01	 4.341E-01	 1.973E+00	-4.924E-01	 1.912E-01	 4.678E-02	 3.037E+02
 787.700	 9.193E-02	-1.689E-02	-6.866E-05	 5.668E-01	 4.075E-01	 1.980E+00	-5.187E-01	 1.880E-01	 1.009E-01	 3.110E+02
 787.800	 9.485E-02	-1.676E-02	-6.866E-05	 7.207E-01	 3.544E-01	 1.960E+00	-5.398E-01	 1.871E-01	 1.653E-01	 3.183E+02
 787.900	 9.609E-02	-1.595E-02	-6.866E-05	 9.293E-01	 2.808E-01	 1.879E+00	-5.474E-01	 1.785E-01	 2.410E-01	 3.256E+02
 788.000	 9.539E-02	-1.458E-02	-6.866E-05	 1.136E+00	 1.954E-01	 1.765E+00	-5.362E-01	 1.549E-01	 3.146E-01	 3.329E+02
 788.100	 9.273E-02	-1.281E-02	-6.866E-05	 1.282E+00	 1.109E-01	 1.649E+00	-5.095E-01	 1.149E-01	 3.752E-01	 3.403E+02
 788.200	 8.846E-02	-1.083E-02	-6.104E-05	 1.385E+00	 3.327E-02	 1.535E+00	-4.756E-01	 6.272E-02	 4.215E-01	 3.476E+02
 788.300	 8.287E-02	-8.838E-03	-5.341E-05	 1.510E+00	-3.440E-02	 1.400E+00	-4.358E-01	 1.624E-02	 4.521E-01	 3.549E+02
 788.400	 7.599E-02	-6.890E-03	-4.578E-05	 1.649E+00	-8.900E-02	 1.220E+00	-3.961E-01	 8.425E-03	 4.651E-01	 2.288E+00
 788.500	 6.793E-02	-4.940E-03	-3.815E-05	 1.747E+00	-1.373E-01	 1.027E+00	-3.580E-01	 4.573E-02	 4.695E-01	 9.643E+00
 788.600	 5.908E-02	-3.026E-03	-3.052E-05	 1.824E+00	-1.864E-01	 8.718E-01	-3.143E-01	 1.142E-01	 4.801E-01	 1.700E+01
 788.700	 4.982E-02	-1.185E-03	-2.289E-05	 1.889E+00	-2.419E-01	 7.492E-01	-2.651E-01	 2.133E-01	 4.901E-01	 2.437E+01
 788.800	 4.079E-02	 5.489E-04	-1.526E-05	 1.943E+00	-3.025E-01	 6.307E-01	-2.069E-01	 3.525E-01	 4.954E-01	 3.174E+01
 788.900	 3.281E-02	 2.055E-03	-7.629E-06	 1.967E+00	-3.685E-01	 5.345E-01	-1.395E-01	 5.002E-01	 4.954E-01	 3.912E+01
 789.000	 2.631E-02	 3.221E-03	-7.629E-06	 1.954E+00	-4.310E-01	 4.765E-01	-6.846E-02	 6.131E-01	 4.849E-01	 4.651E+01
 789.100	 2.141E-02	 3.953E-03	-7.629E-06	 1.934E+00	-4.765E-01	 4.113E-01	 1.259E-03	 7.008E-01	 4.608E-01	 5.391E+01
 789.200	 1.835E-02	 4.160E-03	 0.000E+00	 1.948E+00	-5.059E-01	 3.325E-01	 6.507E-02	 7.707E-01	 4.222E-01	 6.132E+01
 789.300	 1.724E-02	 3.855E-03	 0.000E+00	 1.972E+00	-5.206E-01	 2.692E-01	 1.248E-01	 8.169E-01	 3.740E-01	 6.873E+01
 789.400	 1.784E-02	 3.152E-03	 0.000E+00	 1.946E+00	-5.202E-01	 2.317E-01	 1.783E-01	 8.418E-01	 3.217E-01	 7.615E+01
 789.500	 2.001E-02	 2.125E-03	 0.000E+00	 1.863E+00	-5.094E-01	 2.048E-01	 2.281E-01	 8.575E-01	 2.717E-01	 8.358E+01
 789.600	 2.375E-02	 8.082E-04	-7.629E-06	 1.743E+00	-4.999E-01	 1.875E-01	 2.764E-01	 9.025E-01	 2.197E-01	 9.102E+01
 789.700	 2.869E-02	-6.856E-04	-7.629E-06	 1.586E+00	-4.939E-01	 1.622E-01	 3.233E-01	 9.843E-01	 1.633E-01	 9.846E+01
 789.800	 3.415E-02	-2.240E-03	-7.629E-06	 1.405E+00	-4.834E-01	 1.341E-01	 3.681E-01	 1.071E+00	 1.063E-01	 1.059E+02
 789.900	 3.976E-02	-3.792E-03	-1.526E-05	 1.223E+00	-4.639E-01	 1.158E-01	 4.117E-01	 1.141E+00	 4.596E-02	 1.134E+02
 790.000	 4.516E-02	-5.230E-03	-1.526E-05	 1.059E+00	-4.306E-01	 1.013E-01	 4.514E-01	 1.200E+00	-2.218E-02	 1.208E+02
 790.100	 5.010E-02	-6.500E-03	-2.289E-05	 9.011E-01	-3.779E-01	 8.915E-02	 4.829E-01	 1.281E+00	-9.323E-02	 1.283E+02
 790.200	 5.433E-02	-7.565E-03	-2.289E-05	 7.542E-01	-3.174E-01	 9.567E-02	 4.968E-01	 1.350E+00	-1.668E-01	 1.357E+02
 790.300	 5.762E-02	-8.406E-03	-2.289E-05	 6.367E-01	-2.529E-01	 1.371E-01	 4.993E-01	 1.385E+00	-2.378E-01	 1.432E+02
 790.400	 5.950E-02	-9.088E-03	-3.052E-05	 5.310E-01	-1.903E-01	 1.848E-01	 4.911E-01	 1.391E+00	-3.021E-01	 1.507E+02
 790.500	 5.977E-02	-9.653E-03	-3.052E-05	 4.218E-01	-1.276E-01	 2.327E-01	 4.807E-01	 1.408E+00	-3.461E-01	 1.582E+02
 790.600	 5.874E-02	-1.008E-02	-2.289E-05	 3.282E-01	-7.034E-02	 3.033E-01	 4.650E-01	 1.453E+00	-3.796E-01	 1.656E+02
 790.700	 5.669E-02	-1.024E-02	-2.289E-05	 2.740E-01	-1.987E-02	 3.995E-01	 4.420E-01	 1.454E+00	-4.088E-01	 1.731E+02
 790.800	 5.360E-02	-1.007E-02	-2.289E-05	 2.536E-01	 3.151E-02	 4.949E-01	 4.158E-01	 1.419E+00	-4.299E-01	 1.806E+02
 790.900	 4.958E-02	-9.604E-03	-2.289E-05	 2.229E-01	 8.418E-02	 5.750E-01	 3.810E-01	 1.392E+00	-4.527E-01	 1.881E+02
 791.000	 4.480E-02	-8.826E-03	-1.526E-05	 1.719E-01	 1.455E-01	 6.260E-01	 3.393E-01	 1.376E+00	-4.781E-01	 1.956E+02
 791.100	 3.940E-02	-7.795E-03	-1.526E-05	 1.311E-01	 2.136E-01	 6.516E-01	 2.921E-01	 1.359E+00	-5.008E-01	 2.031E+02
 791.200	 3.344E-02	-6.596E-03	-7.629E-06	 1.013E-01	 2.804E-01	 7.048E-01	 2.382E-01	 1.300E+00	-5.133E-01	 2.106E+02
 791.300	 2.709E-02	-5.255E-03	-7.629E-06	 6.747E-02	 3.439E-01	 7.834E-01	 1.811E-01	 1.198E+00	-5.063E-01	 2.181E+02
 791.400	 2.049E-02	-3.785E-03	 0.000E+00	 3.061E-02	 3.900E-01	 8.316E-01	 1.138E-01	 1.077E+00	-4.880E-01	 2.256E+02
 791.500	 1.383E-02	-2.212E-03	 0.000E+00	-2.851E-04	 4.244E-01	 8.488E-01	 4.636E-02	 9.580E-01	-4.516E-01	 2.331E+02
 791.600	 7.313E-03	-6.298E-04	 0.000E+00	-3.077E-02	 4.464E-01	 8.587E-01	-2.224E-02	 8.309E-01	-4.040E-01	 2.406E+02
 791.700	 1.094E-03	 8.785E-04	 0.000E+00	-6.732E-02	 4.599E-01	 8.694E-01	-8.980E-02	 6.890E-01	-3.516E-01	 2.481E+02
 791.800	-4.644E-03	 2.218E-03	 0.000E+00	-9.347E-02	 4.749E-01	 9.140E-01	-1.488E-01	 5.450E-01	-2.952E-01	 2.556E+02
 791.900	-9.777E-03	 3.275E-03	 0.000E+00	-1.012E-01	 4.854E-01	 9.888E-01	-2.077E-01	 4.127E-01	-2.477E-01	 2.631E+02
 792.000	-1.428E-02	 4.051E-03	 0.000E+00	-9.115E-02	 4.958E-01	 1.055E+00	-2.612E-01	 2.999E-01	-2.042E-01	 2.706E+02
 792.100	-1.798E-02	 4.511E-03	 0.000E+00	-7.814E-02	 5.025E-01	 1.117E+00	-3.127E-01	 2.070E-01	-1.602E-01	 2.781E+02
 792.200	-2.056E-02	 4.634E-03	 0.000E+00	-6.328E-02	 5.001E-01	 1.169E+00	-3.644E-01	 1.492E-01	-1.107E-01	 2.856E+02
 792.300	-2.196E-02	 4.494E-03	 0.000E+00	-3.042E-02	 4.834E-01	 1.185E+00	-4.141E-01	 1.126E-01	-5.115E-02	 2.931E+02
 792.400	-2.234E-02	 4.083E-03	-7.629E-06	 2.615E-02	 4.503E-01	 1.156E+00	-4.544E-01	 6.624E-02	 2.150E-02	 3.006E+02
 792.500	-2.179E-02	 3.396E-03	-7.629E-06	 9.434E-02	 4.050E-01	 1.106E+00	-4.805E-01	 4.270E-03	 1.019E-01	 3.081E+02
 792.600	-2.032E-02	 2.509E-03	 0.000E+00	 1.592E-01	 3.502E-01	 1.033E+00	-4.914E-01	-5.317E-02	 1.784E-01	 3.156E+02
 792.700	-1.801E-02	 1.497E-03	 0.000E+00	 2.320E-01	 2.864E-01	 9.490E-01	-4.924E-01	-8.480E-02	 2.368E-01	 3.230E+02
 792.800	-1.505E-02	 3.202E-04	 0.000E+00	 2.957E-01	 2.240E-01	 8.603E-01	-4.815E-01	-1.154E-01	 2.807E-01	 3.305E+02
 792.900	-1.177E-02	-9.957E-04	 0.000E+00	 3.773E-01	 1.672E-01	 7.655E-01	-4.597E-01	-1.765E-01	 3.190E-01	 3.380E+02
 793.000	-8.231E-03	-2.371E-03	 0.000E+00	 4.891E-01	 1.111E-01	 6.761E-01	-4.343E-01	-2.540E-01	 3.570E-01	 3.455E+02
 793.100	-4.452E-03	-3.743E-03	 0.000E+00	 5.991E-01	 5.279E-02	 5.981E-01	-4.129E-01	-3.023E-01	 3.957E-01	 3.530E+02
 793.200	-5.632E-04	-5.064E-03	 0.000E+00	 6.814E-01	-6.993E-03	 5.345E-01	-3.894E-01	-3.041E-01	 4.372E-01	 4.607E-01
 793.300	 3.221E-03	-6.289E-03	 0.000E+00	 7.268E-01	-7.167E-02	 5.021E-01	-3.652E-01	-2.768E-01	 4.756E-01	 7.936E+00
 793.400	 6.705E-03	-7.380E-03	 0.000E+00	 7.571E-01	-1.396E-01	 4.909E-01	-3.331E-01	-2.501E-01	 5.067E-01	 1.541E+01
 793.500	 9.765E-03	-8.275E-03	 0.000E+00	 7.744E-01	-2.021E-01	 5.098E-01	-2.875E-01	-2.233E-01	 5.269E-01	 2.288E+01
 793.600	 1.222E-02	-8.857E-03	 0.000E+00	 7.542E-01	-2.588E-01	 5.289E-01	-2.351E-01	-1.726E-01	 5.269E-01	 3.035E+01
 793.700	 1.393E-02	-9.069E-03	 0.000E+00	 7.353E-01	-3.049E-01	 5.260E-01	-1.721E-01	-1.083E-01	 5.107E-01	 3.782E+01
 793.800	 1.476E-02	-8.921E-03	 0.000E+00	 7.758E-01	-3.425E-01	 4.506E-01	-1.046E-01	-4.452E-02	 4.826E-01	 4.529E+01
 793.900	 1.470E-02	-8.373E-03	 0.000E+00	 8.335E-01	-3.730E-01	 3.263E-01	-3.859E-02	 1.239E-02	 4.476E-01	 5.276E+01
 794.000	 1.388E-02	-7.411E-03	 0.000E+00	 8.596E-01	-4.038E-01	 1.765E-01	 2.221E-02	 6.906E-02	 4.100E-01	 6.022E+01
 794.100	 1.237E-02	-6.156E-03	 0.000E+00	 8.448E-01	-4.329E-01	 3.474E-02	 8.408E-02	 1.287E-01	 3.767E-01	 6.769E+01
 794.200	 1.004E-02	-4.789E-03	 0.000E+00	 8.194E-01	-4.613E-01	-1.018E-01	 1.460E-01	 1.947E-01	 3.416E-01	 7.515E+01
 794.300	 6.792E-03	-3.363E-03	 0.000E+00	 7.819E-01	-4.861E-01	-2.329E-01	 2.116E-01	 2.624E-01	 3.014E-01	 8.260E+01
 794.400	 2.690E-03	-1.940E-03	 0.000E+00	 7.134E-01	-5.000E-01	-3.260E-01	 2.806E-01	 3.029E-01	 2.533E-01	 9.006E+01
 794.500	-2.109E-03	-5.424E-04	 0.000E+00	 6.339E-01	-4.980E-01	-3.618E-01	 3.430E-01	 3.335E-01	 1.957E-01	 9.751E+01
 794.600	-7.392E-03	 8.568E-04	 0.000E+00	 5.595E-01	-4.758E-01	-3.568E-01	 3.897E-01	 3.915E-01	 1.289E-01	 1.050E+02
 794.700	-1.295E-02	 2.214E-03	 0.000E+00	 5.076E-01	-4.400E-01	-3.317E-01	 4.173E-01	 4.552E-01	 5.429E-02	 1.124E+02
 794.800	-1.866E-02	 3.425E-03	 0.000E+00	 4.651E-01	-3.917E-01	-3.097E-01	 4.369E-01	 4.997E-01	-1.674E-02	 1.198E+02
 794.900	-2.436E-02	 4.390E-03	-7.629E-06	 4.415E-01	-3.406E-01	-3.045E-01	 4.539E-01	 5.271E-01	-8.049E-02	 1.273E+02
 795.000	-2.978E-02	 5.002E-03	-7.629E-06	 4.157E-01	-2.980E-01	-3.075E-01	 4.688E-01	 5.534E-01	-1.409E-01	 1.347E+02
 795.100	-3.444E-02	 5.183E-03	-7.629E-06	 3.653E-01	-2.574E-01	-2.974E-01	 4.908E-01	 6.041E-01	-1.915E-01	 1.421E+02
 795.200	-3.797E-02	 4.940E-03	-7.629E-06	 3.301E-01	-2.232E-01	-2.742E-01	 5.074E-01	 6.629E-01	-2.400E-01	 1.495E+02
 795.300	-4.034E-02	 4.420E-03	-1.526E-05	 3.109E-01	-1.897E-01	-2.289E-01	 5.113E-01	 6.876E-01	-2.891E-01	 1.570E+02
 795.400	-4.163E-02	 3.693E-03	-1.526E-05	 2.982E-01	-1.411E-01	-1.770E-01	 5.056E-01	 6.929E-01	-3.347E-01	 1.644E+02
 795.500	-4.177E-02	 2.793E-03	-1.526E-05	 2.841E-01	-7.478E-02	-1.316E-01	 4.883E-01	 7.214E-01	-3.783E-01	 1.718E+02
 795.600	-4.054E-02	 1.862E-03	-1.526E-05	 2.597E-01	 3.722E-03	-7.582E-02	 4.586E-01	 7.534E-01	-4.169E-01	 1.792E+02
 795.700	-3.765E-02	 9.292E-04	-1.526E-05	 2.369E-01	 8.255E-02	 1.834E-02	 4.143E-01	 7.832E-01	-4.488E-01	 1.866E+02
 795.800	-3.306E-02	-1.054E-04	-7.629E-06	 1.967E-01	 1.530E-01	 1.493E-01	 3.571E-01	 8.096E-01	-4.718E-01	 1.940E+02
 795.900	-2.704E-02	-1.234E-03	-7.629E-06	 1.066E-01	 2.164E-01	 2.868E-01	 2.986E-01	 8.355E-01	-4.779E-01	 2.014E+02
 796.000	-1.974E-02	-2.447E-03	 0.000E+00	-2.922E-02	 2.668E-01	 4.166E-01	 2.366E-01	 8.595E-01	-4.742E-01	 2.088E+02
 796.100	-1.124E-02	-3.707E-03	 0.000E+00	-1.569E-01	 3.109E-01	 5.359E-01	 1.763E-01	 8.773E-01	-4.630E-01	 2.162E+02
 796.200	-1.819E-03	-4.985E-03	 0.000E+00	-2.534E-01	 3.555E-01	 6.295E-01	 1.203E-01	 8.613E-01	-4.449E-01	 2.236E+02
 796.300	 7.938E-03	-6.255E-03	 0.000E+00	-3.430E-01	 3.961E-01	 6.840E-01	 5.977E-02	 7.982E-01	-4.289E-01	 2.310E+02
 796.400	 1.749E-02	-7.501E-03	 0.000E+00	-4.353E-01	 4.423E-01	 7.040E-01	 1.704E-03	 7.119E-01	-4.082E-01	 2.384E+02
 796.500	 2.638E-02	-8.717E-03	-7.629E-06	-4.980E-01	 4.866E-01	 7.345E-01	-5.833E-02	 6.124E-01	-3.816E-01	 2.458E+02
 796.600	 3.398E-02	-9.761E-03	-7.629E-06	-5.035E-01	 5.133E-01	 7.701E-01	-1.227E-01	 5.276E-01	-3.504E-01	 2.532E+02
 796.700	 3.956E-02	-1.048E-02	-1.526E-05	-4.612E-01	 5.234E-01	 7.777E-01	-1.845E-01	 4.761E-01	-3.098E-01	 2.606E+02
 796.800	 4.274E-02	-1.089E-02	-1.526E-05	-4.022E-01	 5.256E-01	 7.613E-01	-2.369E-01	 4.374E-01	-2.497E-01	 2.680E+02
 796.900	 4.358E-02	-1.092E-02	-1.526E-05	-3.415E-01	 5.178E-01	 7.923E-01	-2.836E-01	 4.018E-01	-1.777E-01	 2.754E+02
 797.000	 4.239E-02	-1.052E-02	-1.526E-05	-2.516E-01	 4.941E-01	 8.578E-01	-3.296E-01	 3.655E-01	-1.090E-01	 2.828E+02
 797.100	 3.948E-02	-9.779E-03	-1.526E-05	-1.123E-01	 4.615E-01	 9.360E-01	-3.739E-01	 3.196E-01	-4.670E-02	 2.902E+02
 797.200	 3.498E-02	-8.798E-03	-7.629E-06	 3.723E-02	 4.325E-01	 1.042E+00	-4.105E-01	 2.528E-01	 1.449E-02	 2.976E+02
 797.300	 2.914E-02	-7.608E-03	-7.629E-06	 1.727E-01	 4.039E-01	 1.167E+00	-4.421E-01	 1.592E-01	 7.131E-02	 3.050E+02
 797.400	 2.262E-02	-6.251E-03	-7.629E-06	 3.044E-01	 3.712E-01	 1.260E+00	-4.711E-01	 5.268E-02	 1.259E-01	 3.124E+02
 797.500	 1.624E-02	-4.838E-03	 0.000E+00	 4.440E-01	 3.343E-01	 1.286E+00	-4.907E-01	-4.687E-02	 1.897E-01	 3.197E+02
 797.600	 1.032E-02	-3.371E-03	 0.000E+00	 5.903E-01	 2.801E-01	 1.252E+00	-5.039E-01	-1.327E-01	 2.546E-01	 3.271E+02
 797.700	 4.882E-03	-1.852E-03	 0.000E+00	 6.958E-01	 2.101E-01	 1.180E+00	-5.072E-01	-2.067E-01	 3.170E-01	 3.345E+02
 797.800	-6.825E-06	-4.637E-04	 0.000E+00	 7.177E-01	 1.344E-01	 1.097E+00	-4.929E-01	-2.735E-01	 3.792E-01	 3.419E+02
 797.900	-4.202E-03	 6.766E-04	 0.000E+00	 6.898E-01	 6.318E-02	 1.005E+00	-4.615E-01	-3.199E-01	 4.345E-01	 3.493E+02
 798.000	-7.611E-03	 1.529E-03	 0.000E+00	 7.017E-01	-3.276E-03	 9.171E-01	-4.198E-01	-3.250E-01	 4.682E-01	 3.567E+02
 798.100	-1.026E-02	 2.062E-03	 0.000E+00	 7.446E-01	-6.228E-02	 8.178E-01	-3.775E-01	-2.955E-01	 4.785E-01	 4.121E+00
 798.200	-1.223E-02	 2.330E-03	 0.000E+00	 7.746E-01	-1.071E-01	 7.200E-01	-3.336E-01	-2.551E-01	 4.830E-01	 1.152E+01
 798.300	-1.346E-02	 2.393E-03	 0.000E+00	 7.978E-01	-1.465E-01	 6.091E-01	-2.906E-01	-2.170E-01	 4.855E-01	 1.891E+01
 798.400	-1.372E-02	 2.309E-03	 0.000E+00	 8.848E-01	-1.932E-01	 4.951E-01	-2.521E-01	-1.754E-01	 4.865E-01	 2.631E+01
 798.500	-1.269E-02	 2.015E-03	 0.000E+00	 1.043E+00	-2.507E-01	 3.904E-01	-2.040E-01	-1.277E-01	 4.914E-01	 3.371E+01
 798.600	-1.043E-02	 1.529E-03	 0.000E+00	 1.172E+00	-3.167E-01	 2.913E-01	-1.431E-01	-5.978E-02	 4.968E-01	 4.110E+01
 798.700	-7.071E-03	 8.685E-04	 0.000E+00	 1.264E+00	-3.841E-01	 2.229E-01	-7.028E-02	 6.829E-03	 4.960E-01	 4.850E+01
 798.800	-2.624E-03	-2.701E-05	 0.000E+00	 1.323E+00	-4.470E-01	 1.865E-01	 6.152E-03	 6.037E-02	 4.806E-01	 5.590E+01
 798.900	 2.904E-03	-1.203E-03	 0.000E+00	 1.345E+00	-4.922E-01	 1.616E-01	 8.176E-02	 1.259E-01	 4.493E-01	 6.330E+01
 799.000	 9.343E-03	-2.612E-03	 0.000E+00	 1.357E+00	-5.126E-01	 1.120E-01	 1.496E-01	 2.313E-01	 3.994E-01	 7.070E+01
 799.100	 1.634E-02	-4.107E-03	 0.000E+00	 1.346E+00	-5.102E-01	 2.826E-02	 2.028E-01	 3.653E-01	 3.336E-01	 7.811E+01
 799.200	 2.363E-02	-5.575E-03	-7.629E-06	 1.304E+00	-4.844E-01	-8.670E-02	 2.512E-01	 4.796E-01	 2.670E-01	 8.552E+01
 799.300	 3.092E-02	-6.914E-03	-7.629E-06	 1.245E+00	-4.549E-01	-1.989E-01	 2.930E-01	 5.761E-01	 1.999E-01	 9.294E+01
 799.400	 3.785E-02	-8.111E-03	-7.629E-06	 1.182E+00	-4.338E-01	-2.945E-01	 3.330E-01	 6.470E-01	 1.359E-01	 1.004E+02
 799.500	 4.399E-02	-9.289E-03	-1.526E-05	 1.090E+00	-4.248E-01	-3.860E-01	 3.805E-01	 6.731E-01	 8.139E-02	 1.078E+02
 799.600	 4.884E-02	-1.049E-02	-1.526E-05	 9.732E-01	-4.225E-01	-4.666E-01	 4.350E-01	 6.882E-01	 3.237E-02	 1.152E+02
 799.700	 5.195E-02	-1.156E-02	-2.289E-05	 8.431E-01	-4.183E-01	-4.985E-01	 4.868E-01	 7.489E-01	-1.739E-02	 1.226E+02
 799.800	 5.298E-02	-1.231E-02	-2.289E-05	 7.012E-01	-3.999E-01	-4.663E-01	 5.206E-01	 8.504E-01	-7.628E-02	 1.300E+02
 799.900	 5.183E-02	-1.255E-02	-2.289E-05	 5.642E-01	-3.520E-01	-3.830E-01	 5.380E-01	 9.260E-01	-1.374E-01	 1.374E+02
 800.000	 4.865E-02	-1.221E-02	-1.526E-05	 4.610E-01	-2.785E-01	-2.746E-01	 5.349E-01	 9.557E-01	-2.045E-01	 1.449E+02
