
These predictions were generated by FAST (v6.01, 12-Aug-2005) on 20-Dec-2013 at 13:35:20.
The aerodynamic calculations were made by AeroDyn (12.58, 28-Jun-2005).

 NREL 5.0 MW Baseline Wind Turbine for Use in Offshore Analysis.

    Time	TTDspFA	TTDspSS	TTDspAx	TipDxb1	TipDyb1	TipDxb2	TipDyb2	TipDxb3	TipDyb3	LSSTipPxa
   (sec)	(m)	(m)	(m)	(m)	(m)	(m)	(m)	(m)	(m)	(deg)
   0.100	-1.533E-05	-1.301E-04	 0.000E+00	 2.783E-01	 3.217E-03	 7.194E-02	-4.515E-02	 1.444E-01	 1.157E-01	 5.422E+00
   0.200	 1.341E-03	-8.742E-04	 0.000E+00	 9.405E-01	-5.134E-02	 3.211E-01	-2.201E-01	 5.135E-01	 3.552E-01	 1.084E+01
   0.300	 7.213E-03	-2.272E-03	 0.000E+00	 1.834E+00	-1.499E-01	 8.033E-01	-4.322E-01	 1.059E+00	 6.287E-01	 1.629E+01
   0.400	 1.963E-02	-4.074E-03	-7.629E-06	 2.763E+00	-2.893E-01	 1.404E+00	-5.919E-01	 1.664E+00	 7.981E-01	 2.175E+01
   0.500	 3.932E-02	-5.762E-03	-1.526E-05	 3.515E+00	-4.437E-01	 1.908E+00	-6.181E-01	 2.208E+00	 7.846E-01	 2.723E+01
   0.600	 6.660E-02	-6.809E-03	-3.815E-05	 3.977E+00	-5.515E-01	 2.214E+00	-4.531E-01	 2.642E+00	 6.168E-01	 3.277E+01
   0.700	 1.015E-01	-7.327E-03	-8.392E-05	 4.177E+00	-6.199E-01	 2.398E+00	-1.887E-01	 3.017E+00	 3.265E-01	 3.834E+01
   0.800	 1.438E-01	-7.932E-03	-1.602E-04	 4.243E+00	-6.355E-01	 2.545E+00	 7.946E-02	 3.401E+00	 3.430E-02	 4.398E+01
   0.900	 1.922E-01	-9.548E-03	-2.823E-04	 4.273E+00	-6.316E-01	 2.673E+00	 2.340E-01	 3.777E+00	-1.611E-01	 4.967E+01
   1.000	 2.446E-01	-1.291E-02	-4.654E-04	 4.310E+00	-6.454E-01	 2.774E+00	 2.046E-01	 4.104E+00	-2.153E-01	 5.540E+01
   1.100	 2.989E-01	-1.796E-02	-6.866E-04	 4.366E+00	-6.683E-01	 2.900E+00	 2.715E-02	 4.417E+00	-1.271E-01	 6.118E+01
   1.200	 3.537E-01	-2.382E-02	-9.537E-04	 4.478E+00	-7.087E-01	 3.169E+00	-2.175E-01	 4.765E+00	 2.256E-02	 6.702E+01
   1.300	 4.079E-01	-2.904E-02	-1.274E-03	 4.657E+00	-7.557E-01	 3.619E+00	-4.051E-01	 5.140E+00	 1.373E-01	 7.293E+01
   1.400	 4.598E-01	-3.223E-02	-1.610E-03	 4.897E+00	-7.912E-01	 4.163E+00	-4.395E-01	 5.497E+00	 1.392E-01	 7.892E+01
   1.500	 5.082E-01	-3.287E-02	-1.961E-03	 5.138E+00	-8.120E-01	 4.678E+00	-3.086E-01	 5.802E+00	-5.662E-03	 8.498E+01
   1.600	 5.520E-01	-3.142E-02	-2.304E-03	 5.317E+00	-8.286E-01	 5.094E+00	-8.771E-02	 6.070E+00	-2.764E-01	 9.110E+01
   1.700	 5.901E-01	-2.914E-02	-2.632E-03	 5.426E+00	-8.285E-01	 5.398E+00	 1.253E-01	 6.312E+00	-5.705E-01	 9.729E+01
   1.800	 6.207E-01	-2.754E-02	-2.907E-03	 5.460E+00	-8.034E-01	 5.584E+00	 2.380E-01	 6.507E+00	-7.750E-01	 1.035E+02
   1.900	 6.427E-01	-2.734E-02	-3.113E-03	 5.412E+00	-7.561E-01	 5.651E+00	 2.113E-01	 6.624E+00	-8.194E-01	 1.099E+02
   2.000	 6.551E-01	-2.822E-02	-3.242E-03	 5.335E+00	-7.014E-01	 5.647E+00	 6.792E-02	 6.653E+00	-7.102E-01	 1.163E+02
   2.100	 6.574E-01	-2.918E-02	-3.273E-03	 5.248E+00	-6.530E-01	 5.623E+00	-1.230E-01	 6.615E+00	-5.284E-01	 1.228E+02
   2.200	 6.498E-01	-2.895E-02	-3.197E-03	 5.115E+00	-6.026E-01	 5.625E+00	-2.621E-01	 6.545E+00	-3.759E-01	 1.294E+02
   2.300	 6.328E-01	-2.687E-02	-3.036E-03	 4.921E+00	-5.568E-01	 5.663E+00	-2.889E-01	 6.466E+00	-3.526E-01	 1.361E+02
   2.400	 6.071E-01	-2.321E-02	-2.792E-03	 4.703E+00	-5.063E-01	 5.717E+00	-1.892E-01	 6.399E+00	-4.804E-01	 1.428E+02
   2.500	 5.734E-01	-1.892E-02	-2.487E-03	 4.490E+00	-4.312E-01	 5.801E+00	 4.733E-03	 6.351E+00	-6.955E-01	 1.496E+02
   2.600	 5.333E-01	-1.506E-02	-2.159E-03	 4.292E+00	-3.435E-01	 5.921E+00	 1.977E-01	 6.328E+00	-9.186E-01	 1.565E+02
   2.700	 4.885E-01	-1.228E-02	-1.823E-03	 4.107E+00	-2.510E-01	 6.038E+00	 2.995E-01	 6.351E+00	-1.063E+00	 1.635E+02
   2.800	 4.413E-01	-1.063E-02	-1.488E-03	 3.964E+00	-1.629E-01	 6.123E+00	 2.605E-01	 6.384E+00	-1.070E+00	 1.706E+02
   2.900	 3.939E-01	-9.644E-03	-1.190E-03	 3.854E+00	-8.536E-02	 6.213E+00	 8.465E-02	 6.352E+00	-9.457E-01	 1.777E+02
   3.000	 3.490E-01	-8.855E-03	-9.384E-04	 3.816E+00	-1.621E-02	 6.342E+00	-1.577E-01	 6.191E+00	-7.458E-01	 1.850E+02
   3.100	 3.084E-01	-8.342E-03	-7.401E-04	 3.832E+00	 4.158E-02	 6.486E+00	-3.713E-01	 5.887E+00	-5.536E-01	 1.923E+02
   3.200	 2.737E-01	-8.627E-03	-5.798E-04	 3.879E+00	 8.716E-02	 6.604E+00	-4.766E-01	 5.462E+00	-4.416E-01	 1.997E+02
   3.300	 2.461E-01	-1.030E-02	-4.730E-04	 3.949E+00	 1.304E-01	 6.644E+00	-4.381E-01	 4.952E+00	-4.396E-01	 2.072E+02
   3.400	 2.266E-01	-1.358E-02	-4.044E-04	 4.043E+00	 1.571E-01	 6.568E+00	-3.052E-01	 4.482E+00	-5.474E-01	 2.147E+02
   3.500	 2.153E-01	-1.802E-02	-3.662E-04	 4.145E+00	 1.816E-01	 6.383E+00	-1.462E-01	 4.155E+00	-6.867E-01	 2.224E+02
   3.600	 2.122E-01	-2.252E-02	-3.510E-04	 4.218E+00	 2.140E-01	 6.123E+00	-5.112E-02	 3.932E+00	-7.718E-01	 2.301E+02
   3.700	 2.169E-01	-2.604E-02	-3.738E-04	 4.221E+00	 2.562E-01	 5.829E+00	-8.691E-02	 3.741E+00	-7.424E-01	 2.379E+02
   3.800	 2.286E-01	-2.811E-02	-4.120E-04	 4.168E+00	 3.094E-01	 5.565E+00	-2.399E-01	 3.536E+00	-5.733E-01	 2.458E+02
   3.900	 2.462E-01	-2.908E-02	-4.730E-04	 4.081E+00	 3.472E-01	 5.350E+00	-4.597E-01	 3.348E+00	-3.303E-01	 2.537E+02
   4.000	 2.683E-01	-2.988E-02	-5.569E-04	 3.956E+00	 3.622E-01	 5.152E+00	-6.610E-01	 3.166E+00	-1.010E-01	 2.617E+02
   4.100	 2.930E-01	-3.147E-02	-6.638E-04	 3.805E+00	 3.587E-01	 4.942E+00	-7.566E-01	 2.949E+00	 4.605E-02	 2.698E+02
   4.200	 3.184E-01	-3.419E-02	-7.782E-04	 3.666E+00	 3.311E-01	 4.703E+00	-7.171E-01	 2.706E+00	 6.432E-02	 2.779E+02
   4.300	 3.428E-01	-3.742E-02	-9.003E-04	 3.567E+00	 3.009E-01	 4.437E+00	-5.639E-01	 2.441E+00	-8.332E-03	 2.861E+02
   4.400	 3.648E-01	-3.996E-02	-1.030E-03	 3.517E+00	 2.684E-01	 4.136E+00	-3.858E-01	 2.194E+00	-1.102E-01	 2.944E+02
   4.500	 3.828E-01	-4.065E-02	-1.137E-03	 3.529E+00	 2.324E-01	 3.804E+00	-2.658E-01	 1.954E+00	-1.633E-01	 3.026E+02
   4.600	 3.955E-01	-3.899E-02	-1.205E-03	 3.587E+00	 2.008E-01	 3.477E+00	-2.520E-01	 1.694E+00	-1.047E-01	 3.110E+02
   4.700	 4.018E-01	-3.542E-02	-1.244E-03	 3.654E+00	 1.559E-01	 3.165E+00	-3.627E-01	 1.439E+00	 6.145E-02	 3.194E+02
   4.800	 4.007E-01	-3.093E-02	-1.236E-03	 3.668E+00	 1.088E-01	 2.855E+00	-5.330E-01	 1.199E+00	 2.988E-01	 3.278E+02
   4.900	 3.913E-01	-2.648E-02	-1.175E-03	 3.617E+00	 6.045E-02	 2.542E+00	-6.786E-01	 1.021E+00	 5.238E-01	 3.362E+02
   5.000	 3.735E-01	-2.251E-02	-1.060E-03	 3.515E+00	 2.127E-03	 2.228E+00	-7.292E-01	 9.196E-01	 6.619E-01	 3.447E+02
   5.100	 3.472E-01	-1.875E-02	-9.232E-04	 3.406E+00	-6.781E-02	 1.910E+00	-6.490E-01	 8.845E-01	 6.808E-01	 3.532E+02
   5.200	 3.132E-01	-1.472E-02	-7.477E-04	 3.298E+00	-1.471E-01	 1.600E+00	-4.594E-01	 8.928E-01	 5.857E-01	 1.733E+00
   5.300	 2.725E-01	-1.007E-02	-5.646E-04	 3.181E+00	-2.224E-01	 1.308E+00	-2.228E-01	 9.551E-01	 4.364E-01	 1.029E+01
   5.400	 2.272E-01	-5.172E-03	-3.967E-04	 3.041E+00	-2.904E-01	 9.951E-01	-2.041E-02	 1.085E+00	 3.092E-01	 1.887E+01
   5.500	 1.787E-01	-8.621E-04	-2.518E-04	 2.874E+00	-3.428E-01	 6.783E-01	 8.480E-02	 1.232E+00	 2.610E-01	 2.747E+01
   5.600	 1.288E-01	 2.066E-03	-1.297E-04	 2.709E+00	-3.721E-01	 3.780E-01	 8.006E-02	 1.333E+00	 3.187E-01	 3.610E+01
   5.700	 7.919E-02	 3.346E-03	-5.341E-05	 2.538E+00	-3.989E-01	 1.053E-01	-3.874E-03	 1.411E+00	 4.412E-01	 4.474E+01
   5.800	 3.178E-02	 3.518E-03	-7.629E-06	 2.329E+00	-4.288E-01	-1.095E-01	-9.549E-02	 1.485E+00	 5.638E-01	 5.340E+01
   5.900	-1.200E-02	 3.453E-03	 0.000E+00	 2.068E+00	-4.584E-01	-2.354E-01	-1.211E-01	 1.550E+00	 6.151E-01	 6.207E+01
   6.000	-5.061E-02	 3.867E-03	-1.526E-05	 1.797E+00	-4.876E-01	-3.102E-01	-3.555E-02	 1.589E+00	 5.563E-01	 7.075E+01
   6.100	-8.260E-02	 4.851E-03	-4.578E-05	 1.540E+00	-5.056E-01	-3.406E-01	 1.591E-01	 1.593E+00	 3.948E-01	 7.946E+01
   6.200	-1.071E-01	 5.792E-03	-8.392E-05	 1.257E+00	-5.084E-01	-3.222E-01	 3.912E-01	 1.608E+00	 1.706E-01	 8.817E+01
   6.300	-1.237E-01	 5.652E-03	-1.144E-04	 9.276E-01	-4.841E-01	-2.870E-01	 5.858E-01	 1.628E+00	-3.760E-02	 9.689E+01
   6.400	-1.321E-01	 3.650E-03	-1.297E-04	 5.723E-01	-4.375E-01	-2.654E-01	 6.795E-01	 1.608E+00	-1.682E-01	 1.056E+02
   6.500	-1.325E-01	-2.504E-04	-1.297E-04	 2.573E-01	-3.767E-01	-2.350E-01	 6.489E-01	 1.588E+00	-1.975E-01	 1.144E+02
   6.600	-1.251E-01	-5.370E-03	-1.144E-04	 1.430E-02	-3.087E-01	-1.979E-01	 5.241E-01	 1.588E+00	-1.442E-01	 1.231E+02
   6.700	-1.104E-01	-1.066E-02	-9.155E-05	-1.444E-01	-2.388E-01	-1.736E-01	 3.746E-01	 1.545E+00	-6.178E-02	 1.318E+02
   6.800	-8.896E-02	-1.526E-02	-6.104E-05	-2.341E-01	-1.744E-01	-1.474E-01	 2.778E-01	 1.422E+00	-1.571E-02	 1.406E+02
   6.900	-6.186E-02	-1.898E-02	-3.052E-05	-3.259E-01	-1.285E-01	-1.020E-01	 2.740E-01	 1.249E+00	-5.916E-02	 1.493E+02
   7.000	-3.074E-02	-2.206E-02	-7.629E-06	-4.292E-01	-9.182E-02	-5.234E-02	 3.702E-01	 1.068E+00	-1.825E-01	 1.581E+02
   7.100	 2.593E-03	-2.485E-02	-7.629E-06	-5.296E-01	-6.237E-02	-8.260E-03	 5.149E-01	 9.384E-01	-3.600E-01	 1.668E+02
   7.200	 3.620E-02	-2.741E-02	-1.526E-05	-6.770E-01	-1.927E-02	 5.363E-02	 6.321E-01	 8.132E-01	-5.278E-01	 1.756E+02
   7.300	 6.809E-02	-2.929E-02	-4.578E-05	-8.520E-01	 5.253E-02	 1.604E-01	 6.619E-01	 6.714E-01	-6.139E-01	 1.843E+02
   7.400	 9.663E-02	-2.988E-02	-7.629E-05	-1.011E+00	 1.418E-01	 3.087E-01	 5.620E-01	 5.414E-01	-6.059E-01	 1.930E+02
   7.500	 1.206E-01	-2.880E-02	-1.144E-04	-1.134E+00	 2.498E-01	 4.685E-01	 3.558E-01	 4.317E-01	-5.153E-01	 2.018E+02
   7.600	 1.387E-01	-2.628E-02	-1.526E-04	-1.241E+00	 3.564E-01	 6.361E-01	 1.109E-01	 2.940E-01	-3.854E-01	 2.105E+02
   7.700	 1.502E-01	-2.316E-02	-1.755E-04	-1.335E+00	 4.436E-01	 7.904E-01	-8.369E-02	 1.352E-01	-2.639E-01	 2.192E+02
   7.800	 1.549E-01	-2.038E-02	-1.831E-04	-1.398E+00	 4.931E-01	 9.408E-01	-1.808E-01	-3.644E-02	-2.070E-01	 2.279E+02
   7.900	 1.529E-01	-1.852E-02	-1.831E-04	-1.421E+00	 5.070E-01	 1.080E+00	-1.711E-01	-2.299E-01	-2.297E-01	 2.366E+02
   8.000	 1.437E-01	-1.746E-02	-1.602E-04	-1.421E+00	 4.929E-01	 1.169E+00	-8.896E-02	-4.557E-01	-3.076E-01	 2.453E+02
   8.100	 1.279E-01	-1.643E-02	-1.297E-04	-1.390E+00	 4.835E-01	 1.180E+00	 3.127E-03	-7.261E-01	-3.862E-01	 2.539E+02
   8.200	 1.061E-01	-1.458E-02	-9.155E-05	-1.317E+00	 4.842E-01	 1.096E+00	 1.567E-02	-9.690E-01	-4.164E-01	 2.626E+02
   8.300	 7.883E-02	-1.151E-02	-5.341E-05	-1.188E+00	 4.995E-01	 9.517E-01	-8.021E-02	-1.201E+00	-3.538E-01	 2.712E+02
   8.400	 4.672E-02	-7.456E-03	-1.526E-05	-1.012E+00	 5.299E-01	 7.897E-01	-2.526E-01	-1.455E+00	-1.928E-01	 2.799E+02
   8.500	 1.095E-02	-3.121E-03	 0.000E+00	-8.048E-01	 5.445E-01	 5.702E-01	-4.591E-01	-1.661E+00	 1.211E-02	 2.885E+02
   8.600	-2.714E-02	 6.894E-04	-7.629E-06	-5.636E-01	 5.271E-01	 3.406E-01	-6.266E-01	-1.785E+00	 1.967E-01	 2.971E+02
   8.700	-6.631E-02	 3.320E-03	-3.052E-05	-2.939E-01	 4.689E-01	 1.561E-01	-6.868E-01	-1.867E+00	 3.075E-01	 3.057E+02
   8.800	-1.047E-01	 4.696E-03	-8.392E-05	-3.092E-02	 3.786E-01	 4.584E-02	-6.212E-01	-1.949E+00	 3.322E-01	 3.142E+02
   8.900	-1.401E-01	 5.298E-03	-1.450E-04	 2.245E-01	 2.678E-01	-5.016E-02	-4.773E-01	-2.019E+00	 2.968E-01	 3.228E+02
   9.000	-1.705E-01	 5.534E-03	-2.136E-04	 4.677E-01	 1.507E-01	-1.779E-01	-3.226E-01	-2.041E+00	 2.449E-01	 3.313E+02
   9.100	-1.944E-01	 5.444E-03	-2.747E-04	 6.616E-01	 5.536E-02	-3.784E-01	-2.192E-01	-2.008E+00	 2.265E-01	 3.398E+02
   9.200	-2.108E-01	 4.667E-03	-3.281E-04	 7.920E-01	-1.327E-02	-6.275E-01	-2.053E-01	-1.960E+00	 2.777E-01	 3.483E+02
   9.300	-2.192E-01	 2.763E-03	-3.510E-04	 8.535E-01	-6.426E-02	-8.911E-01	-2.794E-01	-1.920E+00	 3.932E-01	 3.568E+02
   9.400	-2.198E-01	-3.955E-04	-3.586E-04	 8.085E-01	-9.752E-02	-1.140E+00	-3.910E-01	-1.860E+00	 5.368E-01	 5.314E+00
   9.500	-2.129E-01	-4.460E-03	-3.357E-04	 6.662E-01	-1.295E-01	-1.347E+00	-4.702E-01	-1.763E+00	 6.552E-01	 1.377E+01
   9.600	-1.994E-01	-8.666E-03	-2.899E-04	 5.098E-01	-1.857E-01	-1.523E+00	-4.654E-01	-1.630E+00	 7.034E-01	 2.221E+01
   9.700	-1.802E-01	-1.228E-02	-2.365E-04	 3.548E-01	-2.573E-01	-1.648E+00	-3.478E-01	-1.486E+00	 6.647E-01	 3.063E+01
   9.800	-1.564E-01	-1.489E-02	-1.831E-04	 1.882E-01	-3.338E-01	-1.730E+00	-1.528E-01	-1.314E+00	 5.527E-01	 3.903E+01
   9.900	-1.289E-01	-1.669E-02	-1.221E-04	 2.341E-02	-4.025E-01	-1.781E+00	 6.278E-02	-1.099E+00	 4.131E-01	 4.741E+01
  10.000	-9.888E-02	-1.828E-02	-7.629E-05	-1.308E-01	-4.481E-01	-1.805E+00	 2.300E-01	-8.622E-01	 2.926E-01	 5.576E+01
  10.100	-6.770E-02	-2.024E-02	-3.815E-05	-2.662E-01	-4.585E-01	-1.818E+00	 3.003E-01	-6.060E-01	 2.319E-01	 6.410E+01
  10.200	-3.667E-02	-2.266E-02	-1.526E-05	-3.807E-01	-4.390E-01	-1.834E+00	 2.796E-01	-3.707E-01	 2.381E-01	 7.241E+01
  10.300	-6.818E-03	-2.505E-02	-7.629E-06	-4.875E-01	-4.084E-01	-1.847E+00	 2.095E-01	-1.547E-01	 2.846E-01	 8.071E+01
  10.400	 2.088E-02	-2.656E-02	-7.629E-06	-6.039E-01	-3.825E-01	-1.831E+00	 1.442E-01	 1.817E-02	 3.249E-01	 8.898E+01
  10.500	 4.556E-02	-2.652E-02	-2.289E-05	-6.990E-01	-3.696E-01	-1.784E+00	 1.384E-01	 1.280E-01	 3.145E-01	 9.724E+01
  10.600	 6.637E-02	-2.474E-02	-3.815E-05	-7.883E-01	-3.722E-01	-1.728E+00	 2.210E-01	 1.876E-01	 2.295E-01	 1.055E+02
  10.700	 8.231E-02	-2.170E-02	-5.341E-05	-8.623E-01	-3.743E-01	-1.672E+00	 3.772E-01	 2.052E-01	 8.603E-02	 1.137E+02
  10.800	 9.245E-02	-1.816E-02	-6.866E-05	-9.217E-01	-3.703E-01	-1.606E+00	 5.498E-01	 2.095E-01	-7.574E-02	 1.219E+02
  10.900	 9.641E-02	-1.476E-02	-6.866E-05	-9.559E-01	-3.481E-01	-1.511E+00	 6.817E-01	 2.577E-01	-2.135E-01	 1.301E+02
  11.000	 9.405E-02	-1.179E-02	-6.866E-05	-9.772E-01	-3.080E-01	-1.382E+00	 7.202E-01	 3.279E-01	-3.035E-01	 1.383E+02
  11.100	 8.540E-02	-9.049E-03	-5.341E-05	-1.030E+00	-2.394E-01	-1.234E+00	 6.647E-01	 3.885E-01	-3.193E-01	 1.464E+02
  11.200	 7.133E-02	-6.203E-03	-3.815E-05	-1.133E+00	-1.478E-01	-1.058E+00	 5.457E-01	 4.385E-01	-2.800E-01	 1.546E+02
  11.300	 5.314E-02	-3.034E-03	-2.289E-05	-1.248E+00	-5.614E-02	-8.417E-01	 4.081E-01	 4.597E-01	-2.408E-01	 1.627E+02
  11.400	 3.177E-02	 3.471E-04	-7.629E-06	-1.354E+00	 2.674E-02	-5.997E-01	 3.068E-01	 4.442E-01	-2.358E-01	 1.708E+02
  11.500	 8.047E-03	 3.411E-03	 0.000E+00	-1.482E+00	 9.761E-02	-3.551E-01	 2.795E-01	 3.758E-01	-2.793E-01	 1.789E+02
  11.600	-1.678E-02	 5.590E-03	 0.000E+00	-1.635E+00	 1.586E-01	-1.023E-01	 3.214E-01	 2.725E-01	-3.681E-01	 1.870E+02
  11.700	-4.129E-02	 6.693E-03	-1.526E-05	-1.764E+00	 2.074E-01	 1.435E-01	 3.850E-01	 1.593E-01	-4.775E-01	 1.951E+02
  11.800	-6.427E-02	 6.900E-03	-3.052E-05	-1.815E+00	 2.487E-01	 3.680E-01	 4.200E-01	 4.411E-02	-5.636E-01	 2.031E+02
  11.900	-8.471E-02	 6.540E-03	-5.341E-05	-1.794E+00	 2.973E-01	 5.616E-01	 3.835E-01	-7.714E-02	-5.892E-01	 2.112E+02
  12.000	-1.019E-01	 5.964E-03	-7.629E-05	-1.747E+00	 3.619E-01	 6.943E-01	 2.616E-01	-2.128E-01	-5.463E-01	 2.192E+02
  12.100	-1.152E-01	 5.182E-03	-9.918E-05	-1.699E+00	 4.404E-01	 7.429E-01	 8.412E-02	-3.511E-01	-4.433E-01	 2.273E+02
  12.200	-1.240E-01	 3.810E-03	-1.144E-04	-1.616E+00	 5.122E-01	 7.408E-01	-1.011E-01	-4.706E-01	-3.190E-01	 2.353E+02
  12.300	-1.278E-01	 1.361E-03	-1.221E-04	-1.477E+00	 5.598E-01	 7.144E-01	-2.413E-01	-6.247E-01	-2.162E-01	 2.433E+02
  12.400	-1.268E-01	-2.447E-03	-1.221E-04	-1.307E+00	 5.688E-01	 6.541E-01	-3.010E-01	-7.899E-01	-1.640E-01	 2.513E+02
  12.500	-1.214E-01	-7.431E-03	-1.068E-04	-1.153E+00	 5.403E-01	 5.333E-01	-2.811E-01	-9.494E-01	-1.747E-01	 2.593E+02
  12.600	-1.122E-01	-1.288E-02	-9.155E-05	-1.035E+00	 5.044E-01	 4.010E-01	-2.082E-01	-1.082E+00	-2.057E-01	 2.673E+02
  12.700	-9.964E-02	-1.788E-02	-7.629E-05	-9.114E-01	 4.624E-01	 2.624E-01	-1.524E-01	-1.212E+00	-2.303E-01	 2.752E+02
  12.800	-8.418E-02	-2.164E-02	-5.341E-05	-7.443E-01	 4.343E-01	 9.917E-02	-1.469E-01	-1.338E+00	-2.053E-01	 2.832E+02
  12.900	-6.647E-02	-2.394E-02	-3.815E-05	-5.571E-01	 4.213E-01	-5.346E-02	-2.110E-01	-1.462E+00	-1.129E-01	 2.911E+02
  13.000	-4.724E-02	-2.498E-02	-2.289E-05	-3.602E-01	 4.159E-01	-1.932E-01	-3.381E-01	-1.594E+00	 2.565E-02	 2.990E+02
  13.100	-2.747E-02	-2.522E-02	-7.629E-06	-1.697E-01	 4.049E-01	-3.007E-01	-4.742E-01	-1.719E+00	 1.767E-01	 3.070E+02
  13.200	-8.120E-03	-2.511E-02	-7.629E-06	 8.149E-03	 3.686E-01	-3.778E-01	-5.773E-01	-1.833E+00	 2.919E-01	 3.148E+02
  13.300	 1.005E-02	-2.492E-02	-7.629E-06	 1.773E-01	 3.103E-01	-4.302E-01	-5.969E-01	-1.957E+00	 3.674E-01	 3.227E+02
  13.400	 2.618E-02	-2.450E-02	-7.629E-06	 3.345E-01	 2.234E-01	-4.931E-01	-5.370E-01	-2.085E+00	 3.895E-01	 3.306E+02
  13.500	 3.959E-02	-2.357E-02	-1.526E-05	 4.621E-01	 1.290E-01	-5.646E-01	-4.221E-01	-2.167E+00	 3.772E-01	 3.385E+02
  13.600	 4.984E-02	-2.204E-02	-2.289E-05	 5.332E-01	 3.474E-02	-6.392E-01	-3.019E-01	-2.161E+00	 3.572E-01	 3.463E+02
  13.700	 5.649E-02	-2.015E-02	-3.052E-05	 5.402E-01	-4.668E-02	-7.450E-01	-2.248E-01	-2.081E+00	 3.577E-01	 3.541E+02
  13.800	 5.921E-02	-1.831E-02	-3.052E-05	 5.302E-01	-9.585E-02	-8.572E-01	-2.061E-01	-1.967E+00	 4.001E-01	 1.909E+00
  13.900	 5.787E-02	-1.686E-02	-3.052E-05	 5.542E-01	-1.286E-01	-9.535E-01	-2.492E-01	-1.828E+00	 4.689E-01	 9.691E+00
  14.000	 5.267E-02	-1.570E-02	-2.289E-05	 5.927E-01	-1.486E-01	-1.070E+00	-3.085E-01	-1.641E+00	 5.554E-01	 1.746E+01
  14.100	 4.381E-02	-1.441E-02	-1.526E-05	 6.190E-01	-1.726E-01	-1.203E+00	-3.409E-01	-1.405E+00	 6.195E-01	 2.522E+01
  14.200	 3.175E-02	-1.254E-02	-7.629E-06	 5.918E-01	-2.174E-01	-1.322E+00	-3.163E-01	-1.140E+00	 6.305E-01	 3.296E+01
  14.300	 1.722E-02	-9.857E-03	 0.000E+00	 5.380E-01	-2.861E-01	-1.451E+00	-2.119E-01	-8.840E-01	 5.896E-01	 4.069E+01
  14.400	 1.072E-03	-6.612E-03	 0.000E+00	 4.744E-01	-3.675E-01	-1.614E+00	-4.724E-02	-6.534E-01	 5.060E-01	 4.840E+01
  14.500	-1.592E-02	-3.300E-03	 0.000E+00	 3.766E-01	-4.395E-01	-1.779E+00	 1.249E-01	-4.206E-01	 4.054E-01	 5.610E+01
  14.600	-3.300E-02	-5.798E-04	-7.629E-06	 2.339E-01	-4.856E-01	-1.911E+00	 2.583E-01	-1.792E-01	 3.153E-01	 6.380E+01
  14.700	-4.956E-02	 9.594E-04	-1.526E-05	 9.075E-02	-4.965E-01	-2.014E+00	 3.251E-01	 4.309E-02	 2.574E-01	 7.147E+01
  14.800	-6.511E-02	 1.140E-03	-3.052E-05	-2.687E-02	-4.716E-01	-2.100E+00	 3.229E-01	 2.366E-01	 2.362E-01	 7.914E+01
  14.900	-7.874E-02	 2.635E-04	-4.578E-05	-1.316E-01	-4.269E-01	-2.138E+00	 2.825E-01	 4.016E-01	 2.363E-01	 8.679E+01
  15.000	-8.946E-02	-1.148E-03	-5.341E-05	-2.387E-01	-3.927E-01	-2.102E+00	 2.467E-01	 5.563E-01	 2.242E-01	 9.442E+01
  15.100	-9.670E-02	-2.733E-03	-6.866E-05	-3.462E-01	-3.687E-01	-2.003E+00	 2.583E-01	 6.394E-01	 1.844E-01	 1.020E+02
  15.200	-1.002E-01	-4.334E-03	-6.866E-05	-4.795E-01	-3.590E-01	-1.864E+00	 3.301E-01	 6.764E-01	 1.128E-01	 1.097E+02
  15.300	-9.967E-02	-6.174E-03	-6.866E-05	-6.461E-01	-3.571E-01	-1.709E+00	 4.483E-01	 6.823E-01	 1.013E-02	 1.173E+02
  15.400	-9.507E-02	-8.478E-03	-6.866E-05	-8.079E-01	-3.606E-01	-1.552E+00	 5.674E-01	 6.292E-01	-1.073E-01	 1.249E+02
  15.500	-8.711E-02	-1.131E-02	-5.341E-05	-9.576E-01	-3.490E-01	-1.407E+00	 6.449E-01	 5.591E-01	-2.079E-01	 1.324E+02
  15.600	-7.652E-02	-1.453E-02	-4.578E-05	-1.116E+00	-3.016E-01	-1.273E+00	 6.555E-01	 4.936E-01	-2.702E-01	 1.400E+02
  15.700	-6.399E-02	-1.770E-02	-3.052E-05	-1.271E+00	-2.221E-01	-1.132E+00	 5.972E-01	 4.298E-01	-2.959E-01	 1.476E+02
  15.800	-5.022E-02	-2.038E-02	-2.289E-05	-1.401E+00	-1.183E-01	-9.603E-01	 4.962E-01	 3.503E-01	-2.895E-01	 1.551E+02
  15.900	-3.572E-02	-2.233E-02	-1.526E-05	-1.488E+00	-1.965E-02	-7.574E-01	 3.932E-01	 2.547E-01	-2.760E-01	 1.627E+02
  16.000	-2.085E-02	-2.357E-02	-7.629E-06	-1.534E+00	 5.834E-02	-5.413E-01	 3.289E-01	 1.795E-01	-2.790E-01	 1.702E+02
  16.100	-6.041E-03	-2.430E-02	-7.629E-06	-1.555E+00	 1.061E-01	-3.304E-01	 3.142E-01	 1.233E-01	-3.131E-01	 1.777E+02
  16.200	 8.221E-03	-2.474E-02	-7.629E-06	-1.568E+00	 1.294E-01	-1.106E-01	 3.393E-01	 8.074E-02	-3.730E-01	 1.852E+02
  16.300	 2.149E-02	-2.490E-02	-7.629E-06	-1.581E+00	 1.531E-01	 1.055E-01	 3.770E-01	 4.139E-02	-4.369E-01	 1.927E+02
  16.400	 3.329E-02	-2.449E-02	-1.526E-05	-1.568E+00	 1.912E-01	 2.798E-01	 3.914E-01	-7.397E-03	-4.870E-01	 2.002E+02
  16.500	 4.324E-02	-2.317E-02	-1.526E-05	-1.508E+00	 2.502E-01	 3.914E-01	 3.586E-01	-7.325E-02	-5.025E-01	 2.076E+02
  16.600	 5.110E-02	-2.089E-02	-2.289E-05	-1.426E+00	 3.235E-01	 4.878E-01	 2.669E-01	-1.437E-01	-4.798E-01	 2.151E+02
  16.700	 5.665E-02	-1.782E-02	-3.052E-05	-1.346E+00	 4.026E-01	 5.846E-01	 1.343E-01	-2.228E-01	-4.253E-01	 2.225E+02
  16.800	 5.961E-02	-1.443E-02	-3.052E-05	-1.270E+00	 4.689E-01	 6.850E-01	-9.564E-03	-3.264E-01	-3.597E-01	 2.300E+02
  16.900	 5.978E-02	-1.126E-02	-3.052E-05	-1.193E+00	 5.162E-01	 7.515E-01	-1.204E-01	-4.544E-01	-3.002E-01	 2.374E+02
  17.000	 5.714E-02	-8.684E-03	-2.289E-05	-1.104E+00	 5.392E-01	 7.889E-01	-1.767E-01	-5.820E-01	-2.597E-01	 2.449E+02
  17.100	 5.186E-02	-6.743E-03	-2.289E-05	-9.696E-01	 5.370E-01	 8.004E-01	-1.800E-01	-6.965E-01	-2.392E-01	 2.523E+02
  17.200	 4.422E-02	-5.217E-03	-1.526E-05	-7.986E-01	 5.123E-01	 7.904E-01	-1.603E-01	-7.846E-01	-2.344E-01	 2.597E+02
  17.300	 3.471E-02	-3.740E-03	-7.629E-06	-6.219E-01	 4.867E-01	 7.704E-01	-1.451E-01	-8.666E-01	-2.192E-01	 2.671E+02
  17.400	 2.409E-02	-2.023E-03	-7.629E-06	-4.497E-01	 4.726E-01	 7.331E-01	-1.611E-01	-9.191E-01	-1.795E-01	 2.745E+02
  17.500	 1.307E-02	-4.943E-05	 0.000E+00	-2.672E-01	 4.626E-01	 6.703E-01	-2.296E-01	-9.376E-01	-1.207E-01	 2.819E+02
  17.600	 2.223E-03	 1.895E-03	 0.000E+00	-8.383E-02	 4.673E-01	 6.163E-01	-3.237E-01	-9.523E-01	-2.938E-02	 2.893E+02
  17.700	-8.054E-03	 3.358E-03	 0.000E+00	 9.045E-02	 4.685E-01	 5.943E-01	-4.224E-01	-9.922E-01	 7.337E-02	 2.967E+02
  17.800	-1.733E-02	 4.119E-03	 0.000E+00	 2.323E-01	 4.515E-01	 5.660E-01	-4.962E-01	-1.053E+00	 1.660E-01	 3.041E+02
  17.900	-2.512E-02	 4.158E-03	-7.629E-06	 3.497E-01	 4.114E-01	 4.952E-01	-5.200E-01	-1.100E+00	 2.374E-01	 3.115E+02
  18.000	-3.100E-02	 3.547E-03	-7.629E-06	 4.609E-01	 3.400E-01	 3.943E-01	-4.990E-01	-1.093E+00	 2.760E-01	 3.189E+02
  18.100	-3.475E-02	 2.439E-03	-7.629E-06	 5.543E-01	 2.489E-01	 2.669E-01	-4.445E-01	-1.057E+00	 2.960E-01	 3.263E+02
  18.200	-3.636E-02	 9.228E-04	-7.629E-06	 6.012E-01	 1.593E-01	 9.683E-02	-3.770E-01	-1.052E+00	 3.171E-01	 3.337E+02
  18.300	-3.568E-02	-9.957E-04	-7.629E-06	 6.039E-01	 9.133E-02	-9.950E-02	-3.199E-01	-1.044E+00	 3.523E-01	 3.411E+02
  18.400	-3.266E-02	-3.319E-03	-7.629E-06	 5.944E-01	 4.034E-02	-2.894E-01	-2.993E-01	-9.898E-01	 3.938E-01	 3.485E+02
  18.500	-2.761E-02	-6.025E-03	-7.629E-06	 5.914E-01	 2.810E-03	-4.709E-01	-3.108E-01	-9.123E-01	 4.363E-01	 3.559E+02
  18.600	-2.118E-02	-9.029E-03	 0.000E+00	 5.854E-01	-2.489E-02	-6.075E-01	-3.355E-01	-8.532E-01	 4.769E-01	 3.257E+00
  18.700	-1.383E-02	-1.205E-02	 0.000E+00	 5.397E-01	-5.367E-02	-6.863E-01	-3.456E-01	-8.202E-01	 5.143E-01	 1.063E+01
  18.800	-5.885E-03	-1.469E-02	 0.000E+00	 4.891E-01	-1.017E-01	-7.057E-01	-3.233E-01	-7.778E-01	 5.388E-01	 1.800E+01
  18.900	 2.205E-03	-1.673E-02	 0.000E+00	 4.471E-01	-1.705E-01	-7.166E-01	-2.608E-01	-7.035E-01	 5.415E-01	 2.536E+01
  19.000	 9.943E-03	-1.808E-02	 0.000E+00	 4.169E-01	-2.419E-01	-7.502E-01	-1.626E-01	-5.932E-01	 5.305E-01	 3.272E+01
  19.100	 1.699E-02	-1.874E-02	-7.629E-06	 3.885E-01	-3.134E-01	-7.954E-01	-5.854E-02	-4.539E-01	 5.053E-01	 4.008E+01
  19.200	 2.312E-02	-1.885E-02	-7.629E-06	 3.488E-01	-3.728E-01	-8.418E-01	 2.721E-02	-2.848E-01	 4.686E-01	 4.743E+01
  19.300	 2.812E-02	-1.864E-02	-7.629E-06	 3.365E-01	-4.037E-01	-9.223E-01	 8.464E-02	-8.475E-02	 4.329E-01	 5.477E+01
  19.400	 3.206E-02	-1.823E-02	-7.629E-06	 3.649E-01	-4.067E-01	-1.056E+00	 1.196E-01	 1.110E-01	 3.995E-01	 6.211E+01
  19.500	 3.501E-02	-1.743E-02	-1.526E-05	 3.757E-01	-3.986E-01	-1.190E+00	 1.444E-01	 2.904E-01	 3.644E-01	 6.945E+01
  19.600	 3.694E-02	-1.617E-02	-1.526E-05	 3.298E-01	-3.925E-01	-1.277E+00	 1.756E-01	 4.460E-01	 3.245E-01	 7.678E+01
  19.700	 3.780E-02	-1.452E-02	-1.526E-05	 2.364E-01	-3.932E-01	-1.327E+00	 2.281E-01	 5.727E-01	 2.765E-01	 8.412E+01
  19.800	 3.770E-02	-1.261E-02	-1.526E-05	 1.180E-01	-4.061E-01	-1.361E+00	 3.044E-01	 6.659E-01	 2.198E-01	 9.144E+01
  19.900	 3.676E-02	-1.065E-02	-1.526E-05	 6.682E-03	-4.243E-01	-1.366E+00	 3.886E-01	 7.376E-01	 1.509E-01	 9.877E+01
  20.000	 3.499E-02	-8.886E-03	-7.629E-06	-1.250E-01	-4.309E-01	-1.309E+00	 4.650E-01	 7.710E-01	 8.234E-02	 1.061E+02
  20.100	 3.215E-02	-7.412E-03	-7.629E-06	-2.469E-01	-4.159E-01	-1.212E+00	 5.148E-01	 7.594E-01	 1.731E-02	 1.134E+02
  20.200	 2.820E-02	-6.240E-03	-7.629E-06	-3.351E-01	-3.727E-01	-1.111E+00	 5.369E-01	 7.163E-01	-3.766E-02	 1.207E+02
  20.300	 2.325E-02	-5.300E-03	-7.629E-06	-3.790E-01	-3.136E-01	-9.956E-01	 5.284E-01	 6.721E-01	-8.768E-02	 1.280E+02
  20.400	 1.762E-02	-4.478E-03	 0.000E+00	-4.511E-01	-2.454E-01	-8.452E-01	 5.065E-01	 6.385E-01	-1.279E-01	 1.353E+02
  20.500	 1.173E-02	-3.699E-03	 0.000E+00	-5.555E-01	-1.857E-01	-6.620E-01	 4.850E-01	 6.060E-01	-1.647E-01	 1.426E+02
  20.600	 5.822E-03	-2.975E-03	 0.000E+00	-6.996E-01	-1.457E-01	-4.669E-01	 4.703E-01	 5.719E-01	-2.097E-01	 1.499E+02
  20.700	 7.990E-05	-2.349E-03	 0.000E+00	-8.733E-01	-1.087E-01	-2.821E-01	 4.773E-01	 5.277E-01	-2.528E-01	 1.572E+02
  20.800	-5.425E-03	-1.839E-03	 0.000E+00	-1.065E+00	-7.549E-02	-1.109E-01	 4.841E-01	 4.926E-01	-3.065E-01	 1.645E+02
  20.900	-1.045E-02	-1.420E-03	 0.000E+00	-1.257E+00	-2.476E-02	 4.395E-02	 4.831E-01	 4.322E-01	-3.581E-01	 1.718E+02
  21.000	-1.479E-02	-1.114E-03	 0.000E+00	-1.431E+00	 4.408E-02	 1.935E-01	 4.604E-01	 3.576E-01	-4.035E-01	 1.791E+02
  21.100	-1.833E-02	-9.243E-04	 0.000E+00	-1.544E+00	 1.242E-01	 3.254E-01	 4.088E-01	 2.446E-01	-4.366E-01	 1.864E+02
  21.200	-2.104E-02	-8.823E-04	 0.000E+00	-1.570E+00	 2.075E-01	 4.266E-01	 3.353E-01	 9.659E-02	-4.537E-01	 1.937E+02
  21.300	-2.311E-02	-1.197E-03	 0.000E+00	-1.542E+00	 2.804E-01	 4.950E-01	 2.466E-01	-5.997E-02	-4.587E-01	 2.009E+02
  21.400	-2.471E-02	-2.072E-03	-7.629E-06	-1.519E+00	 3.431E-01	 5.390E-01	 1.694E-01	-2.417E-01	-4.412E-01	 2.082E+02
  21.500	-2.592E-02	-3.474E-03	-7.629E-06	-1.494E+00	 3.824E-01	 5.555E-01	 1.150E-01	-4.197E-01	-4.126E-01	 2.154E+02
  21.600	-2.664E-02	-5.225E-03	-7.629E-06	-1.415E+00	 3.940E-01	 5.334E-01	 7.698E-02	-5.863E-01	-3.845E-01	 2.226E+02
  21.700	-2.699E-02	-7.099E-03	-7.629E-06	-1.291E+00	 3.942E-01	 4.645E-01	 5.490E-02	-7.461E-01	-3.591E-01	 2.299E+02
  21.800	-2.728E-02	-8.891E-03	-7.629E-06	-1.180E+00	 3.949E-01	 3.849E-01	 3.296E-02	-8.641E-01	-3.426E-01	 2.371E+02
  21.900	-2.764E-02	-1.041E-02	-7.629E-06	-1.114E+00	 4.120E-01	 3.283E-01	-3.569E-03	-9.535E-01	-3.304E-01	 2.443E+02
  22.000	-2.795E-02	-1.156E-02	-7.629E-06	-1.050E+00	 4.542E-01	 3.170E-01	-6.016E-02	-1.014E+00	-3.110E-01	 2.515E+02
  22.100	-2.831E-02	-1.233E-02	-7.629E-06	-9.558E-01	 4.983E-01	 3.302E-01	-1.413E-01	-1.067E+00	-2.831E-01	 2.587E+02
  22.200	-2.877E-02	-1.270E-02	-7.629E-06	-8.347E-01	 5.416E-01	 3.395E-01	-2.193E-01	-1.138E+00	-2.300E-01	 2.658E+02
  22.300	-2.913E-02	-1.278E-02	-7.629E-06	-6.927E-01	 5.608E-01	 3.361E-01	-2.928E-01	-1.201E+00	-1.649E-01	 2.730E+02
  22.400	-2.926E-02	-1.257E-02	-7.629E-06	-5.523E-01	 5.445E-01	 3.274E-01	-3.558E-01	-1.223E+00	-9.886E-02	 2.801E+02
  22.500	-2.906E-02	-1.208E-02	-7.629E-06	-4.460E-01	 5.055E-01	 3.191E-01	-3.873E-01	-1.218E+00	-2.484E-02	 2.873E+02
  22.600	-2.831E-02	-1.143E-02	-7.629E-06	-3.093E-01	 4.422E-01	 3.250E-01	-3.993E-01	-1.214E+00	 4.243E-02	 2.944E+02
  22.700	-2.694E-02	-1.066E-02	-7.629E-06	-1.427E-01	 3.748E-01	 3.226E-01	-3.952E-01	-1.211E+00	 1.064E-01	 3.015E+02
  22.800	-2.490E-02	-9.743E-03	-7.629E-06	 1.924E-02	 3.218E-01	 2.744E-01	-3.853E-01	-1.173E+00	 1.646E-01	 3.086E+02
  22.900	-2.210E-02	-8.762E-03	-7.629E-06	 1.545E-01	 2.835E-01	 1.829E-01	-3.917E-01	-1.099E+00	 2.061E-01	 3.157E+02
  23.000	-1.849E-02	-7.752E-03	 0.000E+00	 2.691E-01	 2.649E-01	 8.535E-02	-4.051E-01	-1.025E+00	 2.445E-01	 3.228E+02
  23.100	-1.408E-02	-6.703E-03	 0.000E+00	 3.776E-01	 2.502E-01	 1.048E-02	-4.244E-01	-9.761E-01	 2.781E-01	 3.299E+02
  23.200	-8.921E-03	-5.566E-03	 0.000E+00	 4.782E-01	 2.209E-01	-4.602E-02	-4.388E-01	-9.457E-01	 3.129E-01	 3.370E+02
  23.300	-3.080E-03	-4.304E-03	 0.000E+00	 5.707E-01	 1.739E-01	-1.020E-01	-4.322E-01	-9.358E-01	 3.643E-01	 3.441E+02
  23.400	 3.260E-03	-2.983E-03	 0.000E+00	 6.367E-01	 9.923E-02	-1.618E-01	-4.105E-01	-9.308E-01	 4.207E-01	 3.512E+02
  23.500	 9.906E-03	-1.735E-03	 0.000E+00	 6.899E-01	 7.827E-03	-2.281E-01	-3.719E-01	-9.140E-01	 4.764E-01	 3.583E+02
  23.600	 1.661E-02	-8.235E-04	 0.000E+00	 7.283E-01	-8.736E-02	-2.939E-01	-3.240E-01	-8.734E-01	 5.216E-01	 5.368E+00
  23.700	 2.283E-02	-4.371E-04	-7.629E-06	 7.463E-01	-1.711E-01	-3.920E-01	-2.741E-01	-8.134E-01	 5.438E-01	 1.244E+01
  23.800	 2.831E-02	-5.996E-04	-7.629E-06	 7.537E-01	-2.163E-01	-5.127E-01	-2.160E-01	-7.385E-01	 5.523E-01	 1.952E+01
  23.900	 3.292E-02	-1.247E-03	-7.629E-06	 7.438E-01	-2.438E-01	-6.272E-01	-1.754E-01	-6.181E-01	 5.317E-01	 2.659E+01
  24.000	 3.641E-02	-2.171E-03	-7.629E-06	 7.078E-01	-2.550E-01	-7.449E-01	-1.400E-01	-4.704E-01	 4.997E-01	 3.366E+01
  24.100	 3.854E-02	-3.176E-03	-1.526E-05	 6.647E-01	-2.606E-01	-8.496E-01	-9.863E-02	-3.226E-01	 4.712E-01	 4.073E+01
  24.200	 3.922E-02	-4.176E-03	-1.526E-05	 6.232E-01	-2.910E-01	-9.720E-01	-5.685E-02	-1.603E-01	 4.401E-01	 4.779E+01
  24.300	 3.858E-02	-5.102E-03	-1.526E-05	 5.978E-01	-3.311E-01	-1.111E+00	 1.003E-02	 1.596E-02	 4.253E-01	 5.485E+01
  24.400	 3.664E-02	-6.000E-03	-7.629E-06	 5.563E-01	-3.902E-01	-1.231E+00	 7.773E-02	 2.047E-01	 4.048E-01	 6.190E+01
  24.500	 3.351E-02	-6.916E-03	-7.629E-06	 4.734E-01	-4.469E-01	-1.302E+00	 1.500E-01	 3.752E-01	 3.806E-01	 6.895E+01
  24.600	 2.917E-02	-7.952E-03	-7.629E-06	 3.711E-01	-4.846E-01	-1.344E+00	 2.242E-01	 5.038E-01	 3.436E-01	 7.599E+01
  24.700	 2.363E-02	-9.180E-03	-7.629E-06	 2.639E-01	-5.000E-01	-1.391E+00	 2.856E-01	 5.842E-01	 2.838E-01	 8.303E+01
  24.800	 1.718E-02	-1.052E-02	 0.000E+00	 1.664E-01	-4.743E-01	-1.419E+00	 3.449E-01	 6.363E-01	 2.189E-01	 9.007E+01
  24.900	 1.026E-02	-1.192E-02	 0.000E+00	 7.322E-02	-4.331E-01	-1.382E+00	 3.844E-01	 6.600E-01	 1.424E-01	 9.710E+01
  25.000	 3.109E-03	-1.329E-02	 0.000E+00	 5.485E-03	-3.851E-01	-1.280E+00	 4.090E-01	 6.659E-01	 6.974E-02	 1.041E+02
  25.100	-4.152E-03	-1.466E-02	 0.000E+00	-4.479E-02	-3.399E-01	-1.158E+00	 4.272E-01	 6.657E-01	 1.500E-02	 1.111E+02
  25.200	-1.104E-02	-1.605E-02	 0.000E+00	-1.002E-01	-3.144E-01	-1.043E+00	 4.469E-01	 6.785E-01	-2.382E-02	 1.182E+02
  25.300	-1.689E-02	-1.733E-02	-7.629E-06	-1.590E-01	-3.062E-01	-9.186E-01	 4.748E-01	 7.118E-01	-5.312E-02	 1.252E+02
  25.400	-2.125E-02	-1.834E-02	-7.629E-06	-2.429E-01	-3.103E-01	-7.525E-01	 5.038E-01	 7.690E-01	-8.581E-02	 1.322E+02
  25.500	-2.389E-02	-1.895E-02	-7.629E-06	-3.604E-01	-3.025E-01	-5.668E-01	 5.301E-01	 8.510E-01	-1.305E-01	 1.392E+02
  25.600	-2.466E-02	-1.900E-02	-7.629E-06	-5.247E-01	-2.575E-01	-4.087E-01	 5.528E-01	 9.407E-01	-1.883E-01	 1.462E+02
  25.700	-2.318E-02	-1.841E-02	-7.629E-06	-6.903E-01	-1.778E-01	-2.726E-01	 5.569E-01	 1.020E+00	-2.609E-01	 1.532E+02
  25.800	-1.923E-02	-1.732E-02	-7.629E-06	-8.158E-01	-7.997E-02	-1.159E-01	 5.296E-01	 1.064E+00	-3.418E-01	 1.602E+02
  25.900	-1.298E-02	-1.596E-02	 0.000E+00	-9.020E-01	 2.449E-02	 7.303E-02	 4.840E-01	 1.076E+00	-4.094E-01	 1.673E+02
  26.000	-4.919E-03	-1.463E-02	 0.000E+00	-9.693E-01	 1.138E-01	 2.494E-01	 4.278E-01	 1.035E+00	-4.523E-01	 1.743E+02
  26.100	 4.533E-03	-1.347E-02	 0.000E+00	-1.014E+00	 1.766E-01	 3.913E-01	 3.785E-01	 9.473E-01	-4.597E-01	 1.813E+02
  26.200	 1.506E-02	-1.246E-02	 0.000E+00	-1.033E+00	 2.046E-01	 5.074E-01	 3.361E-01	 8.121E-01	-4.432E-01	 1.883E+02
  26.300	 2.621E-02	-1.147E-02	-7.629E-06	-1.029E+00	 2.088E-01	 5.962E-01	 3.018E-01	 6.516E-01	-4.152E-01	 1.954E+02
  26.400	 3.729E-02	-1.029E-02	-1.526E-05	-1.019E+00	 2.075E-01	 6.326E-01	 2.728E-01	 4.684E-01	-3.899E-01	 2.024E+02
  26.500	 4.751E-02	-8.810E-03	-1.526E-05	-1.016E+00	 2.251E-01	 6.152E-01	 2.428E-01	 2.814E-01	-3.774E-01	 2.094E+02
  26.600	 5.626E-02	-7.033E-03	-2.289E-05	-1.017E+00	 2.756E-01	 6.013E-01	 2.042E-01	 1.130E-01	-3.803E-01	 2.165E+02
  26.700	 6.297E-02	-5.136E-03	-3.052E-05	-1.032E+00	 3.491E-01	 6.002E-01	 1.483E-01	-8.234E-03	-3.995E-01	 2.235E+02
  26.800	 6.721E-02	-3.289E-03	-3.815E-05	-1.044E+00	 4.361E-01	 6.392E-01	 8.381E-02	-7.863E-02	-4.116E-01	 2.305E+02
  26.900	 6.879E-02	-1.716E-03	-3.815E-05	-1.033E+00	 5.093E-01	 7.163E-01	 8.490E-03	-1.299E-01	-4.116E-01	 2.375E+02
  27.000	 6.753E-02	-5.202E-04	-3.815E-05	-1.006E+00	 5.522E-01	 7.934E-01	-6.683E-02	-1.887E-01	-3.849E-01	 2.445E+02
  27.100	 6.353E-02	 2.333E-04	-3.052E-05	-9.649E-01	 5.654E-01	 8.612E-01	-1.294E-01	-2.500E-01	-3.315E-01	 2.515E+02
  27.200	 5.705E-02	 5.275E-04	-2.289E-05	-9.020E-01	 5.455E-01	 9.302E-01	-1.889E-01	-2.914E-01	-2.663E-01	 2.585E+02
  27.300	 4.833E-02	 4.108E-04	-1.526E-05	-7.960E-01	 5.153E-01	 9.986E-01	-2.373E-01	-3.500E-01	-1.905E-01	 2.655E+02
  27.400	 3.767E-02	-8.140E-05	-7.629E-06	-6.327E-01	 4.882E-01	 1.012E+00	-2.746E-01	-4.288E-01	-1.197E-01	 2.725E+02
  27.500	 2.573E-02	-9.428E-04	-7.629E-06	-4.388E-01	 4.721E-01	 9.563E-01	-3.067E-01	-5.113E-01	-6.272E-02	 2.795E+02
  27.600	 1.343E-02	-2.075E-03	 0.000E+00	-2.110E-01	 4.743E-01	 8.543E-01	-3.360E-01	-5.524E-01	-1.892E-02	 2.865E+02
  27.700	 1.335E-03	-3.430E-03	 0.000E+00	 3.669E-02	 4.662E-01	 7.556E-01	-3.749E-01	-5.517E-01	 6.459E-03	 2.935E+02
  27.800	-1.005E-02	-4.825E-03	 0.000E+00	 2.751E-01	 4.546E-01	 6.614E-01	-4.044E-01	-5.648E-01	 4.116E-02	 3.005E+02
  27.900	-2.010E-02	-6.087E-03	 0.000E+00	 4.827E-01	 4.244E-01	 5.675E-01	-4.231E-01	-5.855E-01	 9.499E-02	 3.075E+02
  28.000	-2.812E-02	-7.046E-03	-7.629E-06	 6.526E-01	 3.635E-01	 4.769E-01	-4.350E-01	-5.755E-01	 1.631E-01	 3.145E+02
  28.100	-3.366E-02	-7.679E-03	-7.629E-06	 7.594E-01	 2.862E-01	 4.178E-01	-4.360E-01	-5.386E-01	 2.418E-01	 3.215E+02
  28.200	-3.643E-02	-8.233E-03	-7.629E-06	 7.698E-01	 2.044E-01	 3.961E-01	-4.265E-01	-5.170E-01	 3.181E-01	 3.285E+02
  28.300	-3.618E-02	-8.895E-03	-7.629E-06	 7.476E-01	 1.362E-01	 3.827E-01	-4.104E-01	-5.185E-01	 3.834E-01	 3.355E+02
  28.400	-3.303E-02	-9.746E-03	-7.629E-06	 7.509E-01	 8.139E-02	 3.508E-01	-4.001E-01	-5.170E-01	 4.200E-01	 3.425E+02
  28.500	-2.731E-02	-1.077E-02	-7.629E-06	 7.680E-01	 4.617E-02	 2.955E-01	-3.915E-01	-5.046E-01	 4.340E-01	 3.495E+02
  28.600	-1.950E-02	-1.178E-02	-7.629E-06	 7.406E-01	 2.801E-02	 2.306E-01	-3.816E-01	-4.850E-01	 4.416E-01	 3.565E+02
  28.700	-9.964E-03	-1.249E-02	 0.000E+00	 7.156E-01	 7.369E-03	 1.754E-01	-3.605E-01	-4.410E-01	 4.530E-01	 3.558E+00
  28.800	 8.607E-04	-1.272E-02	 0.000E+00	 7.197E-01	-3.704E-02	 9.579E-02	-3.298E-01	-3.653E-01	 4.645E-01	 1.058E+01
  28.900	 1.256E-02	-1.236E-02	 0.000E+00	 7.298E-01	-9.638E-02	-2.702E-03	-2.772E-01	-2.787E-01	 4.872E-01	 1.760E+01
  29.000	 2.479E-02	-1.145E-02	-7.629E-06	 6.979E-01	-1.753E-01	-8.139E-02	-2.155E-01	-1.752E-01	 5.074E-01	 2.462E+01
  29.100	 3.690E-02	-1.015E-02	-7.629E-06	 6.510E-01	-2.621E-01	-1.573E-01	-1.550E-01	-7.343E-02	 5.163E-01	 3.165E+01
  29.200	 4.818E-02	-8.709E-03	-1.526E-05	 6.488E-01	-3.256E-01	-2.276E-01	-8.982E-02	-3.718E-03	 5.170E-01	 3.868E+01
  29.300	 5.798E-02	-7.309E-03	-2.289E-05	 6.675E-01	-3.685E-01	-3.085E-01	-3.650E-02	 5.393E-02	 4.949E-01	 4.570E+01
  29.400	 6.588E-02	-5.890E-03	-3.052E-05	 6.845E-01	-3.813E-01	-3.901E-01	 1.845E-02	 1.237E-01	 4.660E-01	 5.273E+01
  29.500	 7.160E-02	-4.414E-03	-3.815E-05	 6.970E-01	-3.799E-01	-4.501E-01	 6.578E-02	 2.005E-01	 4.231E-01	 5.976E+01
  29.600	 7.502E-02	-2.840E-03	-4.578E-05	 7.088E-01	-3.778E-01	-4.715E-01	 1.072E-01	 3.011E-01	 3.756E-01	 6.679E+01
  29.700	 7.628E-02	-1.252E-03	-4.578E-05	 7.326E-01	-3.839E-01	-4.787E-01	 1.574E-01	 4.080E-01	 3.311E-01	 7.382E+01
  29.800	 7.542E-02	 1.815E-04	-4.578E-05	 7.643E-01	-4.101E-01	-4.967E-01	 2.122E-01	 4.932E-01	 2.875E-01	 8.086E+01
  29.900	 7.258E-02	 1.293E-03	-3.815E-05	 7.867E-01	-4.355E-01	-5.135E-01	 2.809E-01	 5.475E-01	 2.581E-01	 8.789E+01
  30.000	 6.803E-02	 1.958E-03	-3.815E-05	 7.859E-01	-4.611E-01	-5.294E-01	 3.461E-01	 5.808E-01	 2.243E-01	 9.493E+01
  30.100	 6.205E-02	 2.229E-03	-3.052E-05	 7.543E-01	-4.731E-01	-5.291E-01	 4.046E-01	 6.255E-01	 1.825E-01	 1.020E+02
  30.200	 5.474E-02	 2.153E-03	-2.289E-05	 7.090E-01	-4.631E-01	-4.984E-01	 4.456E-01	 6.753E-01	 1.269E-01	 1.090E+02
  30.300	 4.622E-02	 1.834E-03	-1.526E-05	 6.357E-01	-4.314E-01	-4.335E-01	 4.691E-01	 7.349E-01	 5.699E-02	 1.161E+02
  30.400	 3.688E-02	 1.307E-03	-7.629E-06	 5.522E-01	-3.745E-01	-3.616E-01	 4.886E-01	 8.125E-01	-2.080E-02	 1.231E+02
  30.500	 2.724E-02	 5.547E-04	-7.629E-06	 4.599E-01	-3.040E-01	-2.830E-01	 5.017E-01	 8.950E-01	-9.846E-02	 1.302E+02
  30.600	 1.814E-02	-4.573E-04	 0.000E+00	 3.303E-01	-2.299E-01	-1.591E-01	 5.137E-01	 9.842E-01	-1.598E-01	 1.372E+02
  30.700	 1.035E-02	-1.736E-03	 0.000E+00	 1.813E-01	-1.751E-01	 2.145E-03	 5.124E-01	 1.068E+00	-2.162E-01	 1.443E+02
  30.800	 4.135E-03	-3.252E-03	 0.000E+00	 6.237E-02	-1.397E-01	 1.280E-01	 5.018E-01	 1.108E+00	-2.652E-01	 1.514E+02
  30.900	-6.039E-04	-4.954E-03	 0.000E+00	-4.548E-02	-1.104E-01	 1.924E-01	 4.912E-01	 1.108E+00	-3.024E-01	 1.585E+02
  31.000	-3.636E-03	-6.781E-03	 0.000E+00	-1.679E-01	-6.694E-02	 2.141E-01	 4.825E-01	 1.075E+00	-3.272E-01	 1.656E+02
  31.100	-4.666E-03	-8.445E-03	 0.000E+00	-2.465E-01	-1.319E-02	 2.415E-01	 4.697E-01	 1.023E+00	-3.537E-01	 1.727E+02
  31.200	-3.681E-03	-9.807E-03	 0.000E+00	-2.514E-01	 5.012E-02	 2.892E-01	 4.411E-01	 9.481E-01	-3.859E-01	 1.798E+02
  31.300	-9.269E-04	-1.088E-02	 0.000E+00	-2.274E-01	 1.249E-01	 3.260E-01	 4.087E-01	 8.701E-01	-4.131E-01	 1.869E+02
  31.400	 3.373E-03	-1.167E-02	 0.000E+00	-2.152E-01	 1.961E-01	 3.740E-01	 3.656E-01	 8.040E-01	-4.388E-01	 1.940E+02
  31.500	 9.165E-03	-1.220E-02	 0.000E+00	-2.279E-01	 2.564E-01	 4.518E-01	 3.097E-01	 7.488E-01	-4.566E-01	 2.011E+02
  31.600	 1.630E-02	-1.247E-02	 0.000E+00	-2.497E-01	 3.054E-01	 5.468E-01	 2.562E-01	 7.003E-01	-4.571E-01	 2.082E+02
  31.700	 2.448E-02	-1.248E-02	-7.629E-06	-2.666E-01	 3.433E-01	 6.318E-01	 2.059E-01	 6.544E-01	-4.375E-01	 2.154E+02
  31.800	 3.339E-02	-1.212E-02	-7.629E-06	-2.872E-01	 3.739E-01	 7.263E-01	 1.544E-01	 5.999E-01	-4.079E-01	 2.225E+02
  31.900	 4.259E-02	-1.145E-02	-1.526E-05	-3.318E-01	 4.010E-01	 8.363E-01	 9.390E-02	 5.394E-01	-3.807E-01	 2.297E+02
  32.000	 5.156E-02	-1.056E-02	-2.289E-05	-3.890E-01	 4.316E-01	 9.408E-01	 2.672E-02	 4.790E-01	-3.544E-01	 2.368E+02
  32.100	 5.999E-02	-9.499E-03	-3.052E-05	-4.218E-01	 4.717E-01	 1.019E+00	-4.040E-02	 3.728E-01	-3.292E-01	 2.440E+02
  32.200	 6.754E-02	-8.373E-03	-3.815E-05	-3.984E-01	 5.103E-01	 1.077E+00	-1.086E-01	 2.450E-01	-3.038E-01	 2.511E+02
  32.300	 7.373E-02	-7.286E-03	-3.815E-05	-3.456E-01	 5.405E-01	 1.096E+00	-1.700E-01	 1.329E-01	-2.726E-01	 2.583E+02
  32.400	 7.800E-02	-6.223E-03	-4.578E-05	-3.016E-01	 5.568E-01	 1.090E+00	-2.210E-01	 4.366E-02	-2.273E-01	 2.655E+02
  32.500	 8.009E-02	-5.154E-03	-4.578E-05	-2.543E-01	 5.488E-01	 1.087E+00	-2.685E-01	-4.023E-02	-1.682E-01	 2.727E+02
  32.600	 7.980E-02	-4.022E-03	-4.578E-05	-1.750E-01	 5.171E-01	 1.046E+00	-3.109E-01	-1.140E-01	-1.034E-01	 2.798E+02
  32.700	 7.708E-02	-2.816E-03	-4.578E-05	-6.095E-02	 4.772E-01	 9.726E-01	-3.436E-01	-1.668E-01	-3.543E-02	 2.870E+02
  32.800	 7.215E-02	-1.633E-03	-3.815E-05	 7.369E-02	 4.402E-01	 8.759E-01	-3.683E-01	-2.127E-01	 3.056E-02	 2.942E+02
  32.900	 6.519E-02	-5.449E-04	-3.052E-05	 2.143E-01	 4.095E-01	 7.977E-01	-3.883E-01	-2.545E-01	 8.767E-02	 3.014E+02
  33.000	 5.647E-02	 3.844E-04	-2.289E-05	 3.471E-01	 3.799E-01	 7.427E-01	-4.071E-01	-3.147E-01	 1.352E-01	 3.086E+02
  33.100	 4.654E-02	 1.097E-03	-1.526E-05	 4.833E-01	 3.513E-01	 6.946E-01	-4.203E-01	-3.883E-01	 1.852E-01	 3.158E+02
  33.200	 3.596E-02	 1.618E-03	-7.629E-06	 6.145E-01	 3.057E-01	 6.358E-01	-4.373E-01	-4.603E-01	 2.316E-01	 3.229E+02
  33.300	 2.525E-02	 2.028E-03	-7.629E-06	 6.836E-01	 2.564E-01	 5.909E-01	-4.443E-01	-4.934E-01	 2.864E-01	 3.301E+02
  33.400	 1.494E-02	 2.189E-03	 0.000E+00	 6.963E-01	 1.963E-01	 5.656E-01	-4.424E-01	-4.846E-01	 3.452E-01	 3.373E+02
  33.500	 5.447E-03	 1.981E-03	 0.000E+00	 7.101E-01	 1.286E-01	 5.436E-01	-4.290E-01	-4.608E-01	 4.063E-01	 3.445E+02
  33.600	-2.954E-03	 1.340E-03	 0.000E+00	 7.586E-01	 5.909E-02	 5.049E-01	-4.020E-01	-4.466E-01	 4.599E-01	 3.518E+02
  33.700	-9.837E-03	 2.825E-04	 0.000E+00	 8.223E-01	-8.078E-03	 4.542E-01	-3.709E-01	-4.344E-01	 4.953E-01	 3.590E+02
  33.800	-1.465E-02	-1.084E-03	 0.000E+00	 8.849E-01	-6.603E-02	 3.841E-01	-3.342E-01	-3.795E-01	 5.155E-01	 6.176E+00
  33.900	-1.718E-02	-2.688E-03	 0.000E+00	 9.420E-01	-1.203E-01	 2.947E-01	-2.963E-01	-3.010E-01	 5.141E-01	 1.339E+01
  34.000	-1.744E-02	-4.455E-03	 0.000E+00	 9.906E-01	-1.642E-01	 1.610E-01	-2.497E-01	-2.396E-01	 5.076E-01	 2.062E+01
  34.100	-1.536E-02	-6.309E-03	 0.000E+00	 1.042E+00	-2.057E-01	-2.116E-02	-1.917E-01	-1.989E-01	 5.072E-01	 2.786E+01
  34.200	-1.098E-02	-8.130E-03	 0.000E+00	 1.086E+00	-2.613E-01	-1.779E-01	-1.332E-01	-1.633E-01	 5.041E-01	 3.509E+01
  34.300	-4.685E-03	-9.825E-03	 0.000E+00	 1.105E+00	-3.256E-01	-3.288E-01	-7.482E-02	-1.065E-01	 4.975E-01	 4.233E+01
  34.400	 3.011E-03	-1.148E-02	 0.000E+00	 1.078E+00	-3.829E-01	-4.798E-01	-1.063E-02	-1.902E-02	 4.840E-01	 4.957E+01
  34.500	 1.164E-02	-1.306E-02	 0.000E+00	 1.012E+00	-4.291E-01	-6.009E-01	 5.691E-02	 7.163E-02	 4.618E-01	 5.682E+01
  34.600	 2.064E-02	-1.443E-02	-7.629E-06	 9.009E-01	-4.582E-01	-6.831E-01	 1.231E-01	 1.452E-01	 4.260E-01	 6.406E+01
  34.700	 2.948E-02	-1.546E-02	-7.629E-06	 7.609E-01	-4.610E-01	-7.113E-01	 1.831E-01	 2.116E-01	 3.812E-01	 7.131E+01
  34.800	 3.782E-02	-1.612E-02	-1.526E-05	 6.229E-01	-4.455E-01	-6.842E-01	 2.338E-01	 3.011E-01	 3.261E-01	 7.855E+01
  34.900	 4.531E-02	-1.635E-02	-1.526E-05	 5.165E-01	-4.246E-01	-6.535E-01	 2.770E-01	 4.212E-01	 2.577E-01	 8.580E+01
  35.000	 5.161E-02	-1.621E-02	-2.289E-05	 4.362E-01	-4.023E-01	-6.499E-01	 3.179E-01	 5.337E-01	 1.913E-01	 9.304E+01
  35.100	 5.669E-02	-1.576E-02	-2.289E-05	 3.724E-01	-3.834E-01	-6.338E-01	 3.603E-01	 6.701E-01	 1.356E-01	 1.003E+02
  35.200	 6.055E-02	-1.501E-02	-3.052E-05	 3.054E-01	-3.780E-01	-5.900E-01	 3.983E-01	 8.109E-01	 7.943E-02	 1.075E+02
  35.300	 6.286E-02	-1.396E-02	-3.052E-05	 2.128E-01	-3.729E-01	-5.418E-01	 4.369E-01	 8.808E-01	 3.163E-02	 1.148E+02
  35.400	 6.346E-02	-1.276E-02	-3.052E-05	 1.103E-01	-3.595E-01	-5.234E-01	 4.767E-01	 8.617E-01	-7.935E-03	 1.220E+02
  35.500	 6.256E-02	-1.142E-02	-3.052E-05	 3.570E-02	-3.347E-01	-5.381E-01	 5.124E-01	 8.240E-01	-5.623E-02	 1.293E+02
  35.600	 6.014E-02	-9.896E-03	-3.052E-05	-2.710E-02	-2.984E-01	-5.405E-01	 5.326E-01	 8.404E-01	-1.248E-01	 1.365E+02
  35.700	 5.572E-02	-8.254E-03	-2.289E-05	-1.162E-01	-2.470E-01	-4.911E-01	 5.312E-01	 8.669E-01	-2.015E-01	 1.438E+02
  35.800	 4.920E-02	-6.564E-03	-1.526E-05	-1.902E-01	-1.700E-01	-3.980E-01	 5.291E-01	 8.694E-01	-2.632E-01	 1.511E+02
  35.900	 4.093E-02	-4.884E-03	-1.526E-05	-2.053E-01	-9.054E-02	-2.787E-01	 5.160E-01	 8.192E-01	-3.208E-01	 1.583E+02
  36.000	 3.147E-02	-3.317E-03	-7.629E-06	-1.657E-01	-1.943E-02	-1.489E-01	 4.926E-01	 7.418E-01	-3.617E-01	 1.656E+02
  36.100	 2.149E-02	-1.997E-03	 0.000E+00	-9.738E-02	 3.630E-02	 7.274E-03	 4.671E-01	 6.630E-01	-3.787E-01	 1.728E+02
  36.200	 1.155E-02	-9.120E-04	 0.000E+00	-3.900E-02	 7.300E-02	 1.706E-01	 4.291E-01	 6.044E-01	-3.890E-01	 1.801E+02
  36.300	 2.007E-03	 1.297E-04	 0.000E+00	-8.604E-03	 1.047E-01	 3.211E-01	 3.907E-01	 5.628E-01	-3.904E-01	 1.873E+02
  36.400	-6.740E-03	 1.161E-03	 0.000E+00	 1.868E-02	 1.347E-01	 4.273E-01	 3.521E-01	 5.616E-01	-3.899E-01	 1.946E+02
  36.500	-1.387E-02	 2.152E-03	 0.000E+00	 2.611E-02	 1.833E-01	 4.812E-01	 3.166E-01	 6.274E-01	-3.903E-01	 2.018E+02
  36.600	-1.857E-02	 3.043E-03	 0.000E+00	 2.543E-03	 2.529E-01	 5.162E-01	 2.751E-01	 7.321E-01	-4.018E-01	 2.091E+02
  36.700	-2.054E-02	 3.634E-03	 0.000E+00	-5.122E-02	 3.266E-01	 5.362E-01	 2.205E-01	 8.590E-01	-4.262E-01	 2.164E+02
  36.800	-1.958E-02	 3.750E-03	 0.000E+00	-1.180E-01	 4.075E-01	 5.601E-01	 1.685E-01	 9.646E-01	-4.433E-01	 2.237E+02
  36.900	-1.575E-02	 3.312E-03	 0.000E+00	-1.863E-01	 4.726E-01	 5.751E-01	 1.036E-01	 1.023E+00	-4.569E-01	 2.310E+02
  37.000	-9.424E-03	 2.411E-03	 0.000E+00	-2.383E-01	 5.161E-01	 6.098E-01	 3.737E-02	 1.029E+00	-4.469E-01	 2.383E+02
  37.100	-9.364E-04	 1.105E-03	 0.000E+00	-2.581E-01	 5.388E-01	 6.915E-01	-2.063E-02	 9.902E-01	-4.042E-01	 2.456E+02
  37.200	 9.385E-03	-4.369E-04	 0.000E+00	-2.275E-01	 5.371E-01	 7.807E-01	-8.190E-02	 9.281E-01	-3.395E-01	 2.529E+02
  37.300	 2.104E-02	-1.981E-03	 0.000E+00	-1.648E-01	 5.250E-01	 8.598E-01	-1.435E-01	 8.178E-01	-2.578E-01	 2.603E+02
  37.400	 3.368E-02	-3.551E-03	-7.629E-06	-1.034E-01	 5.116E-01	 9.007E-01	-1.973E-01	 6.914E-01	-1.720E-01	 2.676E+02
  37.500	 4.712E-02	-5.177E-03	-1.526E-05	-2.290E-02	 5.003E-01	 9.043E-01	-2.492E-01	 5.755E-01	-1.034E-01	 2.750E+02
  37.600	 6.088E-02	-6.887E-03	-3.052E-05	 1.083E-01	 4.901E-01	 9.046E-01	-3.008E-01	 4.570E-01	-5.354E-02	 2.823E+02
  37.700	 7.409E-02	-8.679E-03	-3.815E-05	 2.318E-01	 4.824E-01	 9.528E-01	-3.444E-01	 3.176E-01	-1.634E-02	 2.897E+02
  37.800	 8.611E-02	-1.044E-02	-5.341E-05	 3.371E-01	 4.768E-01	 9.949E-01	-3.706E-01	 1.476E-01	 2.461E-02	 2.971E+02
  37.900	 9.678E-02	-1.192E-02	-6.866E-05	 4.338E-01	 4.587E-01	 1.011E+00	-3.891E-01	-2.230E-02	 7.844E-02	 3.045E+02
  38.000	 1.058E-01	-1.297E-02	-8.392E-05	 5.276E-01	 4.083E-01	 1.008E+00	-4.136E-01	-1.630E-01	 1.392E-01	 3.119E+02
  38.100	 1.126E-01	-1.366E-02	-9.918E-05	 5.885E-01	 3.406E-01	 9.792E-01	-4.315E-01	-2.656E-01	 2.148E-01	 3.193E+02
  38.200	 1.166E-01	-1.410E-02	-1.068E-04	 5.912E-01	 2.644E-01	 9.227E-01	-4.445E-01	-3.338E-01	 3.004E-01	 3.267E+02
  38.300	 1.172E-01	-1.439E-02	-1.068E-04	 5.365E-01	 1.866E-01	 8.218E-01	-4.520E-01	-3.693E-01	 3.805E-01	 3.342E+02
  38.400	 1.143E-01	-1.461E-02	-9.918E-05	 5.025E-01	 1.319E-01	 7.162E-01	-4.395E-01	-3.541E-01	 4.446E-01	 3.416E+02
  38.500	 1.079E-01	-1.475E-02	-8.392E-05	 5.090E-01	 9.226E-02	 6.199E-01	-4.145E-01	-2.867E-01	 4.700E-01	 3.490E+02
  38.600	 9.828E-02	-1.450E-02	-7.629E-05	 5.383E-01	 6.097E-02	 5.136E-01	-3.772E-01	-1.679E-01	 4.668E-01	 3.565E+02
  38.700	 8.584E-02	-1.369E-02	-5.341E-05	 5.711E-01	 2.332E-02	 4.023E-01	-3.365E-01	-5.401E-02	 4.492E-01	 3.918E+00
  38.800	 7.102E-02	-1.227E-02	-3.815E-05	 6.167E-01	-2.411E-02	 3.149E-01	-2.899E-01	 1.893E-02	 4.384E-01	 1.137E+01
  38.900	 5.482E-02	-1.031E-02	-2.289E-05	 6.795E-01	-8.618E-02	 2.176E-01	-2.354E-01	 7.954E-02	 4.521E-01	 1.883E+01
  39.000	 3.818E-02	-7.994E-03	-1.526E-05	 7.449E-01	-1.707E-01	 1.015E-01	-1.829E-01	 1.547E-01	 4.805E-01	 2.630E+01
  39.100	 2.176E-02	-5.617E-03	 0.000E+00	 7.681E-01	-2.552E-01	 2.084E-02	-1.289E-01	 2.178E-01	 5.167E-01	 3.377E+01
  39.200	 6.054E-03	-3.370E-03	 0.000E+00	 7.544E-01	-3.284E-01	-3.798E-02	-7.774E-02	 2.443E-01	 5.434E-01	 4.126E+01
  39.300	-8.367E-03	-1.328E-03	 0.000E+00	 7.138E-01	-3.834E-01	-1.007E-01	-2.757E-02	 2.458E-01	 5.397E-01	 4.874E+01
  39.400	-2.092E-02	 5.127E-04	 0.000E+00	 6.742E-01	-4.105E-01	-1.672E-01	 2.607E-02	 2.462E-01	 5.029E-01	 5.623E+01
  39.500	-3.118E-02	 2.198E-03	-7.629E-06	 6.416E-01	-4.132E-01	-2.191E-01	 8.487E-02	 2.438E-01	 4.391E-01	 6.373E+01
  39.600	-3.888E-02	 3.766E-03	-1.526E-05	 6.139E-01	-4.025E-01	-2.516E-01	 1.521E-01	 2.459E-01	 3.623E-01	 7.123E+01
  39.700	-4.387E-02	 5.060E-03	-1.526E-05	 5.910E-01	-3.917E-01	-2.594E-01	 2.232E-01	 2.619E-01	 2.900E-01	 7.873E+01
  39.800	-4.603E-02	 5.832E-03	-1.526E-05	 5.609E-01	-3.905E-01	-2.526E-01	 2.877E-01	 2.835E-01	 2.336E-01	 8.624E+01
  39.900	-4.512E-02	 5.963E-03	-1.526E-05	 5.065E-01	-4.018E-01	-2.249E-01	 3.423E-01	 3.160E-01	 1.983E-01	 9.375E+01
  40.000	-4.109E-02	 5.479E-03	-1.526E-05	 4.529E-01	-4.260E-01	-1.735E-01	 3.795E-01	 3.468E-01	 1.707E-01	 1.013E+02
  40.100	-3.424E-02	 4.569E-03	-7.629E-06	 3.762E-01	-4.379E-01	-1.050E-01	 4.064E-01	 3.638E-01	 1.463E-01	 1.088E+02
  40.200	-2.502E-02	 3.522E-03	-7.629E-06	 3.012E-01	-4.213E-01	-4.770E-02	 4.295E-01	 3.673E-01	 1.135E-01	 1.163E+02
  40.300	-1.386E-02	 2.625E-03	 0.000E+00	 2.360E-01	-3.750E-01	-1.695E-02	 4.489E-01	 3.801E-01	 5.401E-02	 1.238E+02
  40.400	-1.178E-03	 1.952E-03	 0.000E+00	 1.975E-01	-3.033E-01	 1.809E-02	 4.695E-01	 3.799E-01	-2.728E-02	 1.313E+02
  40.500	 1.241E-02	 1.343E-03	 0.000E+00	 1.551E-01	-2.280E-01	 6.332E-02	 4.862E-01	 3.670E-01	-1.220E-01	 1.389E+02
  40.600	 2.646E-02	 6.023E-04	-7.629E-06	 1.055E-01	-1.517E-01	 8.542E-02	 5.076E-01	 4.096E-01	-2.044E-01	 1.464E+02
  40.700	 4.054E-02	-4.547E-04	-1.526E-05	 4.514E-02	-1.011E-01	 1.058E-01	 5.158E-01	 4.981E-01	-2.750E-01	 1.540E+02
  40.800	 5.402E-02	-1.849E-03	-2.289E-05	-5.179E-02	-6.584E-02	 1.389E-01	 5.109E-01	 6.076E-01	-3.163E-01	 1.615E+02
  40.900	 6.632E-02	-3.408E-03	-3.052E-05	-1.815E-01	-3.117E-02	 1.751E-01	 4.969E-01	 7.007E-01	-3.263E-01	 1.690E+02
  41.000	 7.699E-02	-4.894E-03	-4.578E-05	-2.964E-01	 4.799E-03	 2.085E-01	 4.610E-01	 7.427E-01	-3.355E-01	 1.766E+02
  41.100	 8.566E-02	-6.111E-03	-5.341E-05	-3.852E-01	 6.464E-02	 2.382E-01	 4.161E-01	 7.389E-01	-3.493E-01	 1.842E+02
  41.200	 9.183E-02	-7.056E-03	-6.104E-05	-4.502E-01	 1.418E-01	 2.659E-01	 3.646E-01	 6.953E-01	-3.785E-01	 1.917E+02
  41.300	 9.515E-02	-7.870E-03	-6.866E-05	-4.931E-01	 2.318E-01	 3.090E-01	 3.120E-01	 6.217E-01	-4.148E-01	 1.993E+02
  41.400	 9.531E-02	-8.640E-03	-6.866E-05	-5.135E-01	 3.197E-01	 3.690E-01	 2.637E-01	 5.219E-01	-4.495E-01	 2.068E+02
  41.500	 9.221E-02	-9.451E-03	-6.104E-05	-5.010E-01	 3.878E-01	 4.236E-01	 2.184E-01	 4.395E-01	-4.657E-01	 2.144E+02
  41.600	 8.599E-02	-1.020E-02	-5.341E-05	-4.476E-01	 4.279E-01	 4.875E-01	 1.745E-01	 3.806E-01	-4.551E-01	 2.220E+02
  41.700	 7.708E-02	-1.073E-02	-4.578E-05	-3.833E-01	 4.428E-01	 5.504E-01	 1.219E-01	 3.449E-01	-4.212E-01	 2.295E+02
  41.800	 6.596E-02	-1.086E-02	-3.052E-05	-3.381E-01	 4.446E-01	 6.220E-01	 5.816E-02	 3.341E-01	-3.663E-01	 2.371E+02
  41.900	 5.329E-02	-1.053E-02	-2.289E-05	-2.804E-01	 4.511E-01	 6.885E-01	-7.651E-03	 3.067E-01	-3.009E-01	 2.447E+02
  42.000	 3.975E-02	-9.814E-03	-1.526E-05	-2.006E-01	 4.632E-01	 7.151E-01	-8.172E-02	 2.427E-01	-2.445E-01	 2.522E+02
  42.100	 2.599E-02	-8.860E-03	-7.629E-06	-1.194E-01	 4.927E-01	 6.950E-01	-1.511E-01	 1.937E-01	-1.998E-01	 2.598E+02
  42.200	 1.241E-02	-7.866E-03	 0.000E+00	-3.170E-02	 5.251E-01	 6.565E-01	-2.157E-01	 1.380E-01	-1.728E-01	 2.674E+02
  42.300	-4.958E-04	-6.854E-03	 0.000E+00	 5.120E-02	 5.517E-01	 6.245E-01	-2.636E-01	 6.976E-02	-1.457E-01	 2.750E+02
  42.400	-1.202E-02	-5.615E-03	 0.000E+00	 1.379E-01	 5.598E-01	 5.854E-01	-2.974E-01	 1.577E-03	-1.091E-01	 2.826E+02
  42.500	-2.151E-02	-4.034E-03	 0.000E+00	 2.290E-01	 5.282E-01	 5.195E-01	-3.259E-01	-6.325E-02	-5.812E-02	 2.902E+02
  42.600	-2.850E-02	-2.045E-03	-7.629E-06	 3.232E-01	 4.739E-01	 4.838E-01	-3.421E-01	-1.368E-01	 1.908E-02	 2.978E+02
  42.700	-3.272E-02	 1.836E-04	-7.629E-06	 3.922E-01	 3.963E-01	 4.764E-01	-3.619E-01	-2.185E-01	 1.074E-01	 3.055E+02
  42.800	-3.406E-02	 2.371E-03	-7.629E-06	 4.173E-01	 3.162E-01	 4.671E-01	-3.860E-01	-3.169E-01	 1.994E-01	 3.131E+02
  42.900	-3.251E-02	 4.126E-03	-7.629E-06	 4.133E-01	 2.608E-01	 4.402E-01	-4.050E-01	-4.077E-01	 2.876E-01	 3.207E+02
  43.000	-2.823E-02	 5.132E-03	-7.629E-06	 4.007E-01	 2.216E-01	 4.008E-01	-4.262E-01	-4.663E-01	 3.463E-01	 3.284E+02
  43.100	-2.147E-02	 5.376E-03	 0.000E+00	 3.805E-01	 2.017E-01	 3.448E-01	-4.361E-01	-5.084E-01	 3.829E-01	 3.360E+02
  43.200	-1.278E-02	 5.030E-03	 0.000E+00	 3.490E-01	 1.847E-01	 2.860E-01	-4.333E-01	-5.396E-01	 3.994E-01	 3.436E+02
  43.300	-2.696E-03	 4.420E-03	 0.000E+00	 3.136E-01	 1.537E-01	 2.216E-01	-4.097E-01	-5.470E-01	 4.067E-01	 3.513E+02
  43.400	 8.251E-03	 3.894E-03	 0.000E+00	 2.596E-01	 1.000E-01	 1.491E-01	-3.690E-01	-5.106E-01	 4.210E-01	 3.589E+02
  43.500	 1.941E-02	 3.491E-03	 0.000E+00	 2.334E-01	 1.541E-02	 1.112E-01	-3.184E-01	-4.515E-01	 4.439E-01	 6.570E+00
  43.600	 3.015E-02	 3.076E-03	-7.629E-06	 2.537E-01	-7.546E-02	 8.958E-02	-2.576E-01	-3.824E-01	 4.852E-01	 1.422E+01
  43.700	 4.011E-02	 2.449E-03	-1.526E-05	 3.228E-01	-1.588E-01	 7.631E-02	-1.979E-01	-2.905E-01	 5.320E-01	 2.186E+01
  43.800	 4.914E-02	 1.494E-03	-1.526E-05	 4.306E-01	-2.325E-01	 6.897E-02	-1.525E-01	-1.888E-01	 5.598E-01	 2.951E+01
  43.900	 5.725E-02	 2.634E-04	-2.289E-05	 5.385E-01	-2.749E-01	 4.829E-02	-1.084E-01	-7.414E-02	 5.709E-01	 3.716E+01
  44.000	 6.442E-02	-1.119E-03	-3.052E-05	 6.401E-01	-3.004E-01	 3.595E-02	-7.030E-02	 6.661E-02	 5.471E-01	 4.482E+01
  44.100	 7.064E-02	-2.410E-03	-3.815E-05	 7.436E-01	-3.147E-01	-4.108E-04	-1.891E-02	 1.893E-01	 4.999E-01	 5.249E+01
  44.200	 7.599E-02	-3.547E-03	-4.578E-05	 8.311E-01	-3.226E-01	-9.184E-02	 5.715E-02	 3.065E-01	 4.430E-01	 6.016E+01
  44.300	 8.057E-02	-4.558E-03	-4.578E-05	 8.694E-01	-3.405E-01	-2.249E-01	 1.432E-01	 4.262E-01	 3.851E-01	 6.785E+01
  44.400	 8.456E-02	-5.511E-03	-5.341E-05	 8.553E-01	-3.666E-01	-3.392E-01	 2.358E-01	 5.455E-01	 3.375E-01	 7.556E+01
  44.500	 8.782E-02	-6.655E-03	-6.104E-05	 7.932E-01	-4.132E-01	-4.309E-01	 3.093E-01	 6.351E-01	 2.874E-01	 8.327E+01
  44.600	 8.988E-02	-8.174E-03	-6.104E-05	 6.754E-01	-4.489E-01	-5.361E-01	 3.716E-01	 6.947E-01	 2.477E-01	 9.099E+01
  44.700	 9.042E-02	-1.002E-02	-6.104E-05	 5.236E-01	-4.553E-01	-6.553E-01	 4.212E-01	 7.455E-01	 2.100E-01	 9.872E+01
  44.800	 8.930E-02	-1.183E-02	-6.104E-05	 3.501E-01	-4.367E-01	-7.288E-01	 4.493E-01	 7.867E-01	 1.539E-01	 1.065E+02
  44.900	 8.631E-02	-1.327E-02	-6.104E-05	 1.561E-01	-3.836E-01	-7.222E-01	 4.674E-01	 7.757E-01	 8.565E-02	 1.142E+02
  45.000	 8.121E-02	-1.427E-02	-5.341E-05	-2.926E-02	-3.115E-01	-6.691E-01	 4.797E-01	 6.985E-01	 1.051E-02	 1.220E+02
  45.100	 7.392E-02	-1.484E-02	-4.578E-05	-1.812E-01	-2.424E-01	-6.202E-01	 4.895E-01	 6.040E-01	-7.220E-02	 1.297E+02
  45.200	 6.456E-02	-1.513E-02	-3.052E-05	-3.185E-01	-1.856E-01	-5.774E-01	 5.038E-01	 5.523E-01	-1.519E-01	 1.375E+02
  45.300	 5.325E-02	-1.528E-02	-2.289E-05	-4.438E-01	-1.501E-01	-5.207E-01	 5.170E-01	 5.207E-01	-2.176E-01	 1.452E+02
  45.400	 4.015E-02	-1.518E-02	-1.526E-05	-5.460E-01	-1.242E-01	-4.433E-01	 5.298E-01	 4.637E-01	-2.565E-01	 1.530E+02
  45.500	 2.561E-02	-1.461E-02	-7.629E-06	-5.979E-01	-1.009E-01	-3.399E-01	 5.292E-01	 3.706E-01	-2.822E-01	 1.607E+02
  45.600	 1.009E-02	-1.347E-02	 0.000E+00	-6.203E-01	-6.319E-02	-2.502E-01	 5.106E-01	 2.747E-01	-3.031E-01	 1.684E+02
  45.700	-5.648E-03	-1.164E-02	 0.000E+00	-6.416E-01	 3.765E-03	-1.695E-01	 4.840E-01	 2.011E-01	-3.178E-01	 1.762E+02
  45.800	-2.057E-02	-9.195E-03	-7.629E-06	-6.654E-01	 8.423E-02	-7.361E-02	 4.330E-01	 1.648E-01	-3.489E-01	 1.839E+02
  45.900	-3.383E-02	-6.263E-03	-7.629E-06	-6.634E-01	 1.731E-01	 2.334E-02	 3.717E-01	 1.361E-01	-3.911E-01	 1.917E+02
  46.000	-4.504E-02	-3.263E-03	-1.526E-05	-6.549E-01	 2.597E-01	 8.635E-02	 3.114E-01	 1.064E-01	-4.260E-01	 1.994E+02
  46.100	-5.385E-02	-5.384E-04	-2.289E-05	-6.707E-01	 3.317E-01	 1.240E-01	 2.595E-01	 7.918E-02	-4.438E-01	 2.071E+02
  46.200	-5.982E-02	 1.783E-03	-3.052E-05	-6.938E-01	 3.841E-01	 1.311E-01	 2.143E-01	 5.022E-02	-4.420E-01	 2.149E+02
  46.300	-6.269E-02	 3.687E-03	-3.052E-05	-7.098E-01	 4.099E-01	 1.210E-01	 1.665E-01	 1.895E-02	-4.254E-01	 2.226E+02
  46.400	-6.252E-02	 5.291E-03	-3.052E-05	-7.184E-01	 4.214E-01	 1.122E-01	 1.207E-01	-3.569E-02	-3.901E-01	 2.304E+02
  46.500	-5.950E-02	 6.718E-03	-3.052E-05	-7.102E-01	 4.262E-01	 9.610E-02	 6.724E-02	-1.254E-01	-3.470E-01	 2.381E+02
  46.600	-5.392E-02	 7.948E-03	-2.289E-05	-7.033E-01	 4.373E-01	 8.636E-02	 2.455E-04	-2.340E-01	-3.044E-01	 2.458E+02
  46.700	-4.623E-02	 8.855E-03	-1.526E-05	-7.001E-01	 4.681E-01	 7.158E-02	-6.819E-02	-3.237E-01	-2.609E-01	 2.535E+02
  46.800	-3.692E-02	 9.291E-03	-7.629E-06	-6.856E-01	 5.054E-01	 7.628E-02	-1.400E-01	-4.014E-01	-2.227E-01	 2.613E+02
  46.900	-2.641E-02	 9.204E-03	-7.629E-06	-6.361E-01	 5.418E-01	 1.096E-01	-2.077E-01	-4.834E-01	-1.834E-01	 2.690E+02
  47.000	-1.516E-02	 8.613E-03	 0.000E+00	-5.701E-01	 5.585E-01	 1.453E-01	-2.667E-01	-5.601E-01	-1.391E-01	 2.767E+02
  47.100	-3.500E-03	 7.669E-03	 0.000E+00	-5.123E-01	 5.499E-01	 1.618E-01	-3.069E-01	-6.211E-01	-8.109E-02	 2.844E+02
  47.200	 8.317E-03	 6.508E-03	 0.000E+00	-4.504E-01	 5.087E-01	 1.685E-01	-3.379E-01	-6.536E-01	-1.416E-02	 2.921E+02
  47.300	 1.974E-02	 5.141E-03	 0.000E+00	-4.057E-01	 4.404E-01	 1.672E-01	-3.625E-01	-6.880E-01	 6.018E-02	 2.998E+02
  47.400	 3.016E-02	 3.523E-03	-7.629E-06	-3.692E-01	 3.808E-01	 1.615E-01	-3.700E-01	-7.157E-01	 1.469E-01	 3.074E+02
  47.500	 3.900E-02	 1.613E-03	-7.629E-06	-3.448E-01	 3.209E-01	 1.197E-01	-3.893E-01	-7.231E-01	 2.157E-01	 3.151E+02
  47.600	 4.588E-02	-5.530E-04	-1.526E-05	-3.217E-01	 2.859E-01	 6.520E-02	-4.025E-01	-7.238E-01	 2.787E-01	 3.228E+02
  47.700	 5.054E-02	-2.975E-03	-1.526E-05	-2.740E-01	 2.657E-01	-1.496E-02	-4.135E-01	-7.076E-01	 3.213E-01	 3.305E+02
  47.800	 5.284E-02	-5.404E-03	-2.289E-05	-1.811E-01	 2.416E-01	-9.666E-02	-4.215E-01	-6.623E-01	 3.443E-01	 3.381E+02
  47.900	 5.275E-02	-7.507E-03	-2.289E-05	-6.877E-02	 2.036E-01	-1.716E-01	-4.137E-01	-6.053E-01	 3.692E-01	 3.458E+02
  48.000	 5.021E-02	-9.104E-03	-2.289E-05	 3.773E-02	 1.375E-01	-2.474E-01	-3.916E-01	-5.499E-01	 3.978E-01	 3.535E+02
  48.100	 4.549E-02	-1.007E-02	-1.526E-05	 1.219E-01	 5.895E-02	-3.324E-01	-3.416E-01	-4.837E-01	 4.446E-01	 1.108E+00
  48.200	 3.909E-02	-1.046E-02	-1.526E-05	 1.779E-01	-4.076E-02	-4.074E-01	-2.838E-01	-4.016E-01	 4.883E-01	 8.759E+00
  48.300	 3.149E-02	-1.045E-02	-7.629E-06	 2.148E-01	-1.387E-01	-4.723E-01	-2.208E-01	-3.243E-01	 5.241E-01	 1.641E+01
  48.400	 2.293E-02	-1.025E-02	-7.629E-06	 2.207E-01	-2.136E-01	-5.305E-01	-1.608E-01	-2.758E-01	 5.409E-01	 2.406E+01
  48.500	 1.372E-02	-9.914E-03	 0.000E+00	 1.763E-01	-2.610E-01	-5.960E-01	-1.150E-01	-2.494E-01	 5.332E-01	 3.171E+01
  48.600	 4.130E-03	-9.374E-03	 0.000E+00	 1.195E-01	-2.823E-01	-6.608E-01	-7.845E-02	-2.576E-01	 5.084E-01	 3.935E+01
  48.700	-5.468E-03	-8.583E-03	 0.000E+00	 7.502E-02	-2.876E-01	-7.589E-01	-4.410E-02	-3.101E-01	 4.752E-01	 4.700E+01
  48.800	-1.466E-02	-7.462E-03	 0.000E+00	 7.465E-02	-2.865E-01	-8.820E-01	-1.675E-04	-3.548E-01	 4.466E-01	 5.464E+01
  48.900	-2.318E-02	-5.946E-03	-7.629E-06	 7.574E-02	-3.165E-01	-1.021E+00	 4.585E-02	-3.748E-01	 4.089E-01	 6.228E+01
  49.000	-3.088E-02	-4.204E-03	-7.629E-06	 6.096E-02	-3.616E-01	-1.156E+00	 1.184E-01	-3.734E-01	 3.820E-01	 6.991E+01
  49.100	-3.773E-02	-2.534E-03	-7.629E-06	 1.598E-02	-4.243E-01	-1.260E+00	 2.003E-01	-3.547E-01	 3.530E-01	 7.753E+01
  49.200	-4.359E-02	-1.085E-03	-1.526E-05	-5.841E-02	-4.831E-01	-1.323E+00	 2.865E-01	-3.177E-01	 3.138E-01	 8.514E+01
  49.300	-4.835E-02	 3.991E-05	-1.526E-05	-1.767E-01	-5.139E-01	-1.339E+00	 3.684E-01	-2.685E-01	 2.628E-01	 9.274E+01
  49.400	-5.209E-02	 8.154E-04	-2.289E-05	-2.926E-01	-5.045E-01	-1.312E+00	 4.256E-01	-1.926E-01	 1.952E-01	 1.003E+02
  49.500	-5.472E-02	 1.453E-03	-2.289E-05	-4.068E-01	-4.422E-01	-1.251E+00	 4.582E-01	-1.079E-01	 1.227E-01	 1.079E+02
  49.600	-5.596E-02	 2.061E-03	-2.289E-05	-5.234E-01	-3.597E-01	-1.168E+00	 4.589E-01	-5.734E-02	 4.140E-02	 1.155E+02
  49.700	-5.543E-02	 2.514E-03	-2.289E-05	-6.165E-01	-2.732E-01	-1.071E+00	 4.493E-01	 4.857E-03	-3.274E-02	 1.230E+02
  49.800	-5.310E-02	 2.650E-03	-2.289E-05	-6.727E-01	-2.159E-01	-9.825E-01	 4.403E-01	 9.464E-02	-9.927E-02	 1.306E+02
  49.900	-4.924E-02	 2.350E-03	-1.526E-05	-7.326E-01	-1.882E-01	-9.194E-01	 4.480E-01	 1.930E-01	-1.532E-01	 1.381E+02
  50.000	-4.396E-02	 1.514E-03	-1.526E-05	-8.008E-01	-1.705E-01	-8.599E-01	 4.855E-01	 2.734E-01	-1.864E-01	 1.457E+02
  50.100	-3.722E-02	 2.561E-04	-7.629E-06	-8.386E-01	-1.627E-01	-7.910E-01	 5.286E-01	 3.286E-01	-2.209E-01	 1.532E+02
  50.200	-2.901E-02	-1.098E-03	-7.629E-06	-8.147E-01	-1.378E-01	-7.085E-01	 5.587E-01	 3.476E-01	-2.594E-01	 1.607E+02
  50.300	-1.959E-02	-2.378E-03	 0.000E+00	-7.703E-01	-9.322E-02	-6.071E-01	 5.526E-01	 3.531E-01	-3.147E-01	 1.682E+02
  50.400	-9.330E-03	-3.489E-03	 0.000E+00	-7.603E-01	-8.733E-03	-5.133E-01	 5.197E-01	 3.465E-01	-3.635E-01	 1.757E+02
  50.500	 1.442E-03	-4.330E-03	 0.000E+00	-7.801E-01	 9.792E-02	-4.311E-01	 4.617E-01	 3.153E-01	-3.999E-01	 1.832E+02
  50.600	 1.243E-02	-4.980E-03	 0.000E+00	-7.982E-01	 1.949E-01	-3.398E-01	 3.823E-01	 2.557E-01	-4.298E-01	 1.907E+02
  50.700	 2.309E-02	-5.701E-03	-7.629E-06	-8.303E-01	 2.780E-01	-2.446E-01	 3.091E-01	 1.771E-01	-4.343E-01	 1.982E+02
  50.800	 3.272E-02	-6.653E-03	-7.629E-06	-9.066E-01	 3.305E-01	-1.566E-01	 2.510E-01	 8.606E-02	-4.218E-01	 2.057E+02
  50.900	 4.079E-02	-7.707E-03	-1.526E-05	-9.924E-01	 3.524E-01	-6.996E-02	 2.072E-01	-1.593E-02	-4.036E-01	 2.132E+02
  51.000	 4.701E-02	-8.715E-03	-1.526E-05	-1.041E+00	 3.592E-01	 9.100E-03	 1.720E-01	-1.232E-01	-3.853E-01	 2.207E+02
  51.100	 5.110E-02	-9.512E-03	-2.289E-05	-1.034E+00	 3.699E-01	 8.863E-02	 1.391E-01	-2.391E-01	-3.668E-01	 2.282E+02
  51.200	 5.277E-02	-9.914E-03	-2.289E-05	-9.815E-01	 3.964E-01	 1.364E-01	 9.734E-02	-3.446E-01	-3.485E-01	 2.357E+02
  51.300	 5.202E-02	-9.887E-03	-2.289E-05	-9.062E-01	 4.432E-01	 1.897E-01	 3.558E-02	-4.370E-01	-3.260E-01	 2.431E+02
  51.400	 4.905E-02	-9.537E-03	-1.526E-05	-8.162E-01	 5.046E-01	 2.416E-01	-4.254E-02	-5.341E-01	-2.968E-01	 2.506E+02
  51.500	 4.409E-02	-8.903E-03	-1.526E-05	-7.185E-01	 5.564E-01	 3.085E-01	-1.259E-01	-6.036E-01	-2.552E-01	 2.581E+02
  51.600	 3.754E-02	-8.042E-03	-7.629E-06	-6.042E-01	 5.751E-01	 3.841E-01	-2.119E-01	-6.752E-01	-2.086E-01	 2.655E+02
  51.700	 2.982E-02	-7.079E-03	-7.629E-06	-4.791E-01	 5.670E-01	 4.289E-01	-2.739E-01	-7.713E-01	-1.421E-01	 2.730E+02
  51.800	 2.128E-02	-6.061E-03	-7.629E-06	-3.657E-01	 5.323E-01	 4.471E-01	-3.079E-01	-8.422E-01	-6.616E-02	 2.804E+02
  51.900	 1.241E-02	-4.990E-03	 0.000E+00	-2.792E-01	 4.781E-01	 4.581E-01	-3.296E-01	-8.809E-01	 5.701E-03	 2.879E+02
  52.000	 3.807E-03	-4.022E-03	 0.000E+00	-2.126E-01	 4.237E-01	 4.779E-01	-3.417E-01	-8.972E-01	 7.843E-02	 2.953E+02
  52.100	-4.266E-03	-3.310E-03	 0.000E+00	-1.339E-01	 3.740E-01	 4.425E-01	-3.600E-01	-9.212E-01	 1.348E-01	 3.028E+02
  52.200	-1.150E-02	-2.800E-03	 0.000E+00	-6.866E-02	 3.496E-01	 3.219E-01	-3.761E-01	-9.390E-01	 1.853E-01	 3.102E+02
  52.300	-1.760E-02	-2.474E-03	 0.000E+00	-2.875E-02	 3.330E-01	 1.882E-01	-4.039E-01	-9.318E-01	 2.204E-01	 3.176E+02
  52.400	-2.243E-02	-2.256E-03	 0.000E+00	-1.661E-02	 3.231E-01	 1.101E-01	-4.265E-01	-9.242E-01	 2.541E-01	 3.251E+02
  52.500	-2.580E-02	-2.075E-03	-7.629E-06	 6.629E-03	 3.089E-01	 8.099E-02	-4.268E-01	-9.514E-01	 2.982E-01	 3.325E+02
  52.600	-2.734E-02	-1.869E-03	-7.629E-06	 8.167E-02	 2.568E-01	 6.017E-02	-4.232E-01	-1.024E+00	 3.429E-01	 3.400E+02
  52.700	-2.668E-02	-1.648E-03	-7.629E-06	 2.156E-01	 1.750E-01	 3.124E-02	-3.997E-01	-1.123E+00	 4.058E-01	 3.474E+02
  52.800	-2.398E-02	-1.568E-03	-7.629E-06	 3.500E-01	 6.543E-02	-1.858E-02	-3.751E-01	-1.191E+00	 4.652E-01	 3.549E+02
  52.900	-1.952E-02	-1.826E-03	 0.000E+00	 4.944E-01	-4.380E-02	-1.267E-01	-3.372E-01	-1.221E+00	 5.226E-01	 2.292E+00
  53.000	-1.365E-02	-2.687E-03	 0.000E+00	 6.139E-01	-1.363E-01	-2.750E-01	-2.910E-01	-1.217E+00	 5.682E-01	 9.731E+00
  53.100	-6.753E-03	-4.255E-03	 0.000E+00	 6.709E-01	-1.987E-01	-4.282E-01	-2.401E-01	-1.176E+00	 5.910E-01	 1.717E+01
  53.200	 8.927E-04	-6.334E-03	 0.000E+00	 7.275E-01	-2.319E-01	-5.424E-01	-1.847E-01	-1.084E+00	 5.883E-01	 2.460E+01
  53.300	 9.105E-03	-8.674E-03	 0.000E+00	 7.360E-01	-2.537E-01	-6.435E-01	-1.324E-01	-9.365E-01	 5.530E-01	 3.203E+01
  53.400	 1.763E-02	-1.091E-02	 0.000E+00	 6.984E-01	-2.603E-01	-7.185E-01	-7.255E-02	-7.400E-01	 5.106E-01	 3.946E+01
  53.500	 2.634E-02	-1.288E-02	-7.629E-06	 6.473E-01	-2.762E-01	-7.332E-01	-1.431E-02	-5.311E-01	 4.647E-01	 4.688E+01
  53.600	 3.497E-02	-1.447E-02	-7.629E-06	 5.939E-01	-3.089E-01	-7.178E-01	 4.464E-02	-3.386E-01	 4.299E-01	 5.431E+01
  53.700	 4.325E-02	-1.574E-02	-1.526E-05	 5.656E-01	-3.461E-01	-7.301E-01	 1.104E-01	-1.863E-01	 4.161E-01	 6.174E+01
  53.800	 5.095E-02	-1.674E-02	-2.289E-05	 5.368E-01	-3.864E-01	-7.724E-01	 1.703E-01	-4.403E-02	 4.087E-01	 6.918E+01
  53.900	 5.800E-02	-1.731E-02	-3.052E-05	 4.864E-01	-4.211E-01	-7.947E-01	 2.274E-01	 1.072E-01	 3.975E-01	 7.662E+01
  54.000	 6.408E-02	-1.743E-02	-3.052E-05	 4.276E-01	-4.483E-01	-7.934E-01	 2.753E-01	 2.637E-01	 3.551E-01	 8.406E+01
  54.100	 6.893E-02	-1.708E-02	-3.815E-05	 3.231E-01	-4.476E-01	-7.955E-01	 3.308E-01	 4.023E-01	 2.940E-01	 9.151E+01
  54.200	 7.237E-02	-1.622E-02	-4.578E-05	 1.664E-01	-4.222E-01	-7.954E-01	 3.896E-01	 5.363E-01	 2.101E-01	 9.896E+01
  54.300	 7.433E-02	-1.485E-02	-4.578E-05	-2.562E-02	-3.803E-01	-7.510E-01	 4.420E-01	 6.596E-01	 1.079E-01	 1.064E+02
  54.400	 7.456E-02	-1.312E-02	-4.578E-05	-2.371E-01	-3.248E-01	-6.636E-01	 4.837E-01	 7.100E-01	 1.445E-02	 1.139E+02
  54.500	 7.293E-02	-1.127E-02	-3.815E-05	-4.147E-01	-2.615E-01	-5.594E-01	 5.104E-01	 7.060E-01	-5.153E-02	 1.213E+02
  54.600	 6.968E-02	-9.445E-03	-3.815E-05	-5.177E-01	-2.145E-01	-4.461E-01	 5.159E-01	 6.817E-01	-9.806E-02	 1.288E+02
  54.700	 6.497E-02	-7.718E-03	-3.052E-05	-5.962E-01	-1.894E-01	-3.440E-01	 5.046E-01	 6.596E-01	-1.319E-01	 1.363E+02
  54.800	 5.896E-02	-6.064E-03	-3.052E-05	-6.435E-01	-1.681E-01	-2.799E-01	 4.984E-01	 6.419E-01	-1.450E-01	 1.438E+02
  54.900	 5.201E-02	-4.344E-03	-2.289E-05	-6.700E-01	-1.507E-01	-2.161E-01	 4.951E-01	 5.884E-01	-1.650E-01	 1.512E+02
  55.000	 4.428E-02	-2.494E-03	-1.526E-05	-6.706E-01	-1.190E-01	-1.447E-01	 4.911E-01	 4.811E-01	-2.064E-01	 1.587E+02
  55.100	 3.578E-02	-5.917E-04	-7.629E-06	-6.383E-01	-5.873E-02	-1.016E-01	 4.929E-01	 3.809E-01	-2.621E-01	 1.662E+02
  55.200	 2.659E-02	 1.212E-03	-7.629E-06	-6.132E-01	 1.787E-02	-7.289E-02	 4.824E-01	 2.548E-01	-3.330E-01	 1.737E+02
  55.300	 1.700E-02	 2.985E-03	 0.000E+00	-5.752E-01	 1.077E-01	-4.732E-02	 4.678E-01	 7.880E-02	-3.921E-01	 1.812E+02
  55.400	 7.380E-03	 4.633E-03	 0.000E+00	-5.115E-01	 1.805E-01	 1.912E-03	 4.312E-01	-1.148E-01	-4.321E-01	 1.887E+02
  55.500	-1.963E-03	 6.047E-03	 0.000E+00	-4.608E-01	 2.321E-01	 6.887E-02	 3.799E-01	-2.455E-01	-4.334E-01	 1.961E+02
  55.600	-1.061E-02	 7.198E-03	 0.000E+00	-4.591E-01	 2.686E-01	 1.240E-01	 3.196E-01	-3.127E-01	-3.992E-01	 2.036E+02
  55.700	-1.809E-02	 8.079E-03	 0.000E+00	-4.975E-01	 2.914E-01	 1.853E-01	 2.438E-01	-3.347E-01	-3.583E-01	 2.111E+02
  55.800	-2.395E-02	 8.651E-03	-7.629E-06	-5.117E-01	 3.225E-01	 2.377E-01	 1.731E-01	-3.566E-01	-3.225E-01	 2.186E+02
  55.900	-2.797E-02	 8.769E-03	-7.629E-06	-4.927E-01	 3.637E-01	 2.321E-01	 1.099E-01	-3.888E-01	-3.092E-01	 2.261E+02
  56.000	-2.997E-02	 8.314E-03	-7.629E-06	-4.680E-01	 4.199E-01	 2.109E-01	 6.201E-02	-4.379E-01	-3.103E-01	 2.336E+02
  56.100	-2.972E-02	 7.191E-03	-7.629E-06	-4.457E-01	 4.827E-01	 1.956E-01	 2.765E-02	-5.088E-01	-3.194E-01	 2.411E+02
  56.200	-2.723E-02	 5.529E-03	-7.629E-06	-4.209E-01	 5.262E-01	 2.178E-01	-1.192E-02	-5.912E-01	-3.255E-01	 2.486E+02
  56.300	-2.270E-02	 3.616E-03	-7.629E-06	-3.996E-01	 5.474E-01	 2.392E-01	-5.973E-02	-7.148E-01	-3.091E-01	 2.561E+02
  56.400	-1.646E-02	 1.664E-03	 0.000E+00	-3.886E-01	 5.429E-01	 2.736E-01	-1.226E-01	-8.599E-01	-2.605E-01	 2.635E+02
  56.500	-8.873E-03	-2.609E-04	 0.000E+00	-3.882E-01	 5.171E-01	 2.852E-01	-1.987E-01	-9.908E-01	-1.778E-01	 2.710E+02
  56.600	-4.365E-04	-2.233E-03	 0.000E+00	-3.781E-01	 4.854E-01	 2.726E-01	-2.748E-01	-1.110E+00	-7.000E-02	 2.785E+02
  56.700	 8.302E-03	-4.530E-03	 0.000E+00	-3.468E-01	 4.509E-01	 2.523E-01	-3.421E-01	-1.199E+00	 3.904E-02	 2.860E+02
  56.800	 1.676E-02	-7.255E-03	 0.000E+00	-3.043E-01	 4.246E-01	 1.725E-01	-3.910E-01	-1.244E+00	 1.242E-01	 2.935E+02
  56.900	 2.441E-02	-1.033E-02	-7.629E-06	-2.537E-01	 4.089E-01	 5.021E-02	-4.126E-01	-1.245E+00	 1.721E-01	 3.010E+02
  57.000	 3.094E-02	-1.348E-02	-7.629E-06	-1.913E-01	 3.933E-01	-8.434E-02	-4.128E-01	-1.204E+00	 1.790E-01	 3.084E+02
  57.100	 3.604E-02	-1.628E-02	-1.526E-05	-1.226E-01	 3.730E-01	-2.032E-01	-3.953E-01	-1.122E+00	 1.704E-01	 3.159E+02
  57.200	 3.953E-02	-1.842E-02	-1.526E-05	-3.363E-02	 3.356E-01	-2.918E-01	-3.703E-01	-1.056E+00	 1.789E-01	 3.233E+02
  57.300	 4.134E-02	-1.969E-02	-1.526E-05	 6.748E-02	 2.806E-01	-3.772E-01	-3.495E-01	-1.047E+00	 2.264E-01	 3.308E+02
  57.400	 4.171E-02	-2.007E-02	-1.526E-05	 1.679E-01	 2.098E-01	-4.636E-01	-3.412E-01	-1.064E+00	 3.110E-01	 3.382E+02
  57.500	 4.086E-02	-1.970E-02	-1.526E-05	 2.717E-01	 1.216E-01	-5.528E-01	-3.558E-01	-1.056E+00	 4.063E-01	 3.457E+02
  57.600	 3.863E-02	-1.891E-02	-1.526E-05	 3.441E-01	 3.044E-02	-6.457E-01	-3.763E-01	-1.038E+00	 4.899E-01	 3.531E+02
  57.700	 3.469E-02	-1.798E-02	-1.526E-05	 3.959E-01	-4.096E-02	-7.636E-01	-3.760E-01	-1.040E+00	 5.493E-01	 5.146E-01
  57.800	 2.909E-02	-1.698E-02	-7.629E-06	 4.307E-01	-9.448E-02	-8.396E-01	-3.487E-01	-1.062E+00	 5.738E-01	 7.936E+00
  57.900	 2.202E-02	-1.572E-02	-7.629E-06	 4.185E-01	-1.389E-01	-8.921E-01	-2.901E-01	-1.074E+00	 5.606E-01	 1.535E+01
  58.000	 1.392E-02	-1.402E-02	 0.000E+00	 3.819E-01	-1.644E-01	-9.433E-01	-2.009E-01	-1.023E+00	 5.314E-01	 2.276E+01
  58.100	 5.184E-03	-1.190E-02	 0.000E+00	 3.216E-01	-2.016E-01	-9.456E-01	-1.215E-01	-9.161E-01	 4.815E-01	 3.016E+01
  58.200	-3.903E-03	-9.457E-03	 0.000E+00	 2.423E-01	-2.476E-01	-9.175E-01	-5.151E-02	-8.000E-01	 4.426E-01	 3.755E+01
  58.300	-1.318E-02	-6.984E-03	 0.000E+00	 1.736E-01	-2.975E-01	-8.868E-01	 8.419E-04	-7.001E-01	 4.315E-01	 4.494E+01
  58.400	-2.233E-02	-4.736E-03	-7.629E-06	 1.104E-01	-3.448E-01	-8.529E-01	 3.269E-02	-6.255E-01	 4.430E-01	 5.231E+01
  58.500	-3.069E-02	-2.639E-03	-7.629E-06	 4.951E-02	-3.766E-01	-8.062E-01	 6.369E-02	-5.556E-01	 4.734E-01	 5.969E+01
  58.600	-3.787E-02	-5.947E-04	-7.629E-06	 2.180E-03	-4.089E-01	-7.666E-01	 8.672E-02	-4.740E-01	 4.777E-01	 6.706E+01
  58.700	-4.363E-02	 1.560E-03	-1.526E-05	-1.627E-02	-4.182E-01	-7.696E-01	 1.281E-01	-3.992E-01	 4.566E-01	 7.442E+01
  58.800	-4.758E-02	 3.931E-03	-1.526E-05	-5.629E-03	-4.134E-01	-8.295E-01	 1.899E-01	-3.425E-01	 4.002E-01	 8.179E+01
  58.900	-4.915E-02	 6.383E-03	-1.526E-05	 1.669E-02	-4.088E-01	-9.116E-01	 2.659E-01	-2.590E-01	 3.044E-01	 8.914E+01
  59.000	-4.823E-02	 8.530E-03	-1.526E-05	 1.156E-02	-4.048E-01	-9.943E-01	 3.498E-01	-1.115E-01	 1.949E-01	 9.650E+01
  59.100	-4.511E-02	 9.872E-03	-1.526E-05	-4.519E-02	-3.973E-01	-1.098E+00	 4.305E-01	 3.963E-02	 9.921E-02	 1.038E+02
  59.200	-4.010E-02	 1.015E-02	-1.526E-05	-1.145E-01	-3.835E-01	-1.202E+00	 4.971E-01	 1.581E-01	 2.931E-02	 1.112E+02
  59.300	-3.352E-02	 9.330E-03	-7.629E-06	-2.114E-01	-3.698E-01	-1.266E+00	 5.318E-01	 2.226E-01	-2.111E-02	 1.185E+02
  59.400	-2.570E-02	 7.576E-03	-7.629E-06	-3.349E-01	-3.405E-01	-1.284E+00	 5.357E-01	 2.203E-01	-4.805E-02	 1.259E+02
  59.500	-1.697E-02	 5.231E-03	 0.000E+00	-4.759E-01	-3.018E-01	-1.278E+00	 5.184E-01	 1.772E-01	-6.580E-02	 1.332E+02
  59.600	-7.683E-03	 2.672E-03	 0.000E+00	-6.155E-01	-2.540E-01	-1.256E+00	 4.915E-01	 1.510E-01	-9.802E-02	 1.405E+02
  59.700	 1.345E-03	 6.833E-05	 0.000E+00	-7.503E-01	-2.008E-01	-1.219E+00	 4.662E-01	 1.397E-01	-1.533E-01	 1.478E+02
  59.800	 9.139E-03	-2.572E-03	 0.000E+00	-8.984E-01	-1.367E-01	-1.174E+00	 4.626E-01	 1.414E-01	-2.203E-01	 1.551E+02
  59.900	 1.529E-02	-5.351E-03	 0.000E+00	-1.042E+00	-6.105E-02	-1.123E+00	 4.808E-01	 1.406E-01	-2.931E-01	 1.624E+02
  60.000	 1.974E-02	-8.285E-03	 0.000E+00	-1.120E+00	 7.049E-03	-1.037E+00	 5.044E-01	 1.515E-01	-3.685E-01	 1.697E+02
  60.100	 2.246E-02	-1.133E-02	-7.629E-06	-1.131E+00	 6.419E-02	-9.335E-01	 5.133E-01	 1.928E-01	-4.257E-01	 1.770E+02
  60.200	 2.354E-02	-1.433E-02	-7.629E-06	-1.130E+00	 1.126E-01	-7.877E-01	 4.951E-01	 2.501E-01	-4.519E-01	 1.842E+02
  60.300	 2.302E-02	-1.693E-02	-7.629E-06	-1.121E+00	 1.537E-01	-6.261E-01	 4.388E-01	 2.557E-01	-4.550E-01	 1.915E+02
  60.400	 2.103E-02	-1.883E-02	-7.629E-06	-1.097E+00	 2.039E-01	-4.754E-01	 3.604E-01	 2.100E-01	-4.324E-01	 1.987E+02
  60.500	 1.777E-02	-1.998E-02	-7.629E-06	-1.054E+00	 2.609E-01	-3.399E-01	 2.736E-01	 1.494E-01	-4.035E-01	 2.059E+02
  60.600	 1.363E-02	-2.051E-02	-7.629E-06	-1.015E+00	 3.284E-01	-2.127E-01	 1.964E-01	 9.219E-02	-3.741E-01	 2.132E+02
  60.700	 8.978E-03	-2.055E-02	 0.000E+00	-9.925E-01	 3.942E-01	-5.533E-02	 1.383E-01	 4.531E-02	-3.581E-01	 2.204E+02
  60.800	 4.221E-03	-2.019E-02	 0.000E+00	-9.693E-01	 4.421E-01	 1.145E-01	 9.524E-02	 4.108E-03	-3.597E-01	 2.276E+02
  60.900	-1.650E-04	-1.940E-02	 0.000E+00	-9.290E-01	 4.762E-01	 2.289E-01	 6.757E-02	-5.756E-02	-3.664E-01	 2.348E+02
  61.000	-3.789E-03	-1.813E-02	 0.000E+00	-8.868E-01	 4.950E-01	 3.072E-01	 3.602E-02	-8.660E-02	-3.682E-01	 2.421E+02
  61.100	-6.425E-03	-1.633E-02	 0.000E+00	-8.615E-01	 5.072E-01	 3.978E-01	-1.056E-02	-1.129E-01	-3.494E-01	 2.493E+02
  61.200	-7.840E-03	-1.394E-02	 0.000E+00	-8.489E-01	 5.269E-01	 5.194E-01	-6.528E-02	-2.065E-01	-2.888E-01	 2.565E+02
  61.300	-7.698E-03	-1.101E-02	 0.000E+00	-8.184E-01	 5.414E-01	 6.328E-01	-1.405E-01	-3.336E-01	-2.093E-01	 2.638E+02
  61.400	-5.848E-03	-7.778E-03	 0.000E+00	-7.632E-01	 5.426E-01	 6.703E-01	-2.312E-01	-4.484E-01	-1.270E-01	 2.710E+02
  61.500	-2.600E-03	-4.669E-03	 0.000E+00	-6.876E-01	 5.343E-01	 7.136E-01	-3.174E-01	-5.847E-01	-5.213E-02	 2.782E+02
  61.600	 1.635E-03	-2.104E-03	 0.000E+00	-6.101E-01	 5.206E-01	 7.884E-01	-3.779E-01	-7.507E-01	 9.078E-03	 2.855E+02
  61.700	 6.655E-03	-1.273E-04	 0.000E+00	-5.254E-01	 5.029E-01	 8.450E-01	-4.085E-01	-9.101E-01	 5.488E-02	 2.927E+02
  61.800	 1.242E-02	 1.305E-03	 0.000E+00	-4.071E-01	 4.771E-01	 8.252E-01	-4.122E-01	-1.058E+00	 9.391E-02	 2.999E+02
  61.900	 1.884E-02	 2.265E-03	 0.000E+00	-2.399E-01	 4.426E-01	 7.502E-01	-3.950E-01	-1.184E+00	 1.346E-01	 3.072E+02
  62.000	 2.557E-02	 2.915E-03	-7.629E-06	-5.527E-02	 3.833E-01	 6.249E-01	-3.871E-01	-1.294E+00	 1.727E-01	 3.144E+02
  62.100	 3.231E-02	 3.290E-03	-7.629E-06	 9.358E-02	 3.114E-01	 4.650E-01	-3.900E-01	-1.392E+00	 2.304E-01	 3.217E+02
  62.200	 3.861E-02	 3.149E-03	-1.526E-05	 2.285E-01	 2.387E-01	 2.664E-01	-4.044E-01	-1.473E+00	 3.040E-01	 3.289E+02
  62.300	 4.407E-02	 2.309E-03	-1.526E-05	 3.887E-01	 1.758E-01	 5.400E-02	-4.131E-01	-1.521E+00	 3.822E-01	 3.361E+02
  62.400	 4.850E-02	 7.193E-04	-1.526E-05	 5.507E-01	 1.206E-01	-1.726E-01	-4.139E-01	-1.529E+00	 4.496E-01	 3.434E+02
  62.500	 5.169E-02	-1.657E-03	-2.289E-05	 6.797E-01	 6.419E-02	-3.607E-01	-4.004E-01	-1.509E+00	 4.952E-01	 3.506E+02
  62.600	 5.326E-02	-4.613E-03	-2.289E-05	 7.585E-01	 9.755E-03	-5.139E-01	-3.651E-01	-1.464E+00	 5.158E-01	 3.578E+02
  62.700	 5.310E-02	-7.884E-03	-2.289E-05	 8.131E-01	-5.190E-02	-6.306E-01	-3.158E-01	-1.391E+00	 5.127E-01	 5.033E+00
  62.800	 5.123E-02	-1.131E-02	-2.289E-05	 8.075E-01	-1.196E-01	-7.192E-01	-2.541E-01	-1.290E+00	 4.983E-01	 1.224E+01
  62.900	 4.777E-02	-1.478E-02	-2.289E-05	 7.612E-01	-1.744E-01	-7.818E-01	-1.831E-01	-1.152E+00	 4.985E-01	 1.945E+01
  63.000	 4.283E-02	-1.821E-02	-1.526E-05	 7.018E-01	-2.217E-01	-8.265E-01	-1.257E-01	-9.759E-01	 5.073E-01	 2.666E+01
  63.100	 3.646E-02	-2.140E-02	-1.526E-05	 6.430E-01	-2.680E-01	-8.591E-01	-9.454E-02	-8.023E-01	 5.174E-01	 3.386E+01
  63.200	 2.886E-02	-2.413E-02	-7.629E-06	 5.802E-01	-3.035E-01	-8.953E-01	-7.261E-02	-6.811E-01	 5.299E-01	 4.106E+01
  63.300	 2.041E-02	-2.619E-02	-7.629E-06	 4.966E-01	-3.331E-01	-9.396E-01	-5.076E-02	-5.713E-01	 5.252E-01	 4.826E+01
  63.400	 1.131E-02	-2.723E-02	-7.629E-06	 3.686E-01	-3.630E-01	-1.003E+00	-1.713E-02	-4.380E-01	 4.898E-01	 5.545E+01
  63.500	 1.767E-03	-2.712E-02	-7.629E-06	 2.329E-01	-3.808E-01	-1.072E+00	 5.304E-02	-3.013E-01	 4.439E-01	 6.264E+01
  63.600	-8.032E-03	-2.590E-02	-7.629E-06	 1.029E-01	-3.989E-01	-1.115E+00	 1.432E-01	-1.941E-01	 3.851E-01	 6.983E+01
  63.700	-1.773E-02	-2.360E-02	-7.629E-06	-1.404E-02	-4.132E-01	-1.133E+00	 2.394E-01	-1.134E-01	 3.242E-01	 7.701E+01
  63.800	-2.679E-02	-2.056E-02	-7.629E-06	-1.231E-01	-4.276E-01	-1.153E+00	 3.148E-01	-2.273E-02	 2.612E-01	 8.418E+01
  63.900	-3.469E-02	-1.714E-02	-7.629E-06	-2.207E-01	-4.346E-01	-1.173E+00	 3.616E-01	 9.997E-02	 2.034E-01	 9.135E+01
  64.000	-4.113E-02	-1.345E-02	-1.526E-05	-2.984E-01	-4.251E-01	-1.169E+00	 3.892E-01	 2.289E-01	 1.596E-01	 9.851E+01
  64.100	-4.594E-02	-9.503E-03	-1.526E-05	-3.746E-01	-4.065E-01	-1.143E+00	 3.995E-01	 2.928E-01	 1.176E-01	 1.057E+02
  64.200	-4.879E-02	-5.375E-03	-1.526E-05	-4.374E-01	-3.672E-01	-1.115E+00	 4.187E-01	 3.307E-01	 8.351E-02	 1.128E+02
  64.300	-4.930E-02	-1.178E-03	-1.526E-05	-4.787E-01	-3.242E-01	-1.086E+00	 4.429E-01	 3.570E-01	 3.836E-02	 1.200E+02
  64.400	-4.731E-02	 3.030E-03	-1.526E-05	-5.307E-01	-2.851E-01	-1.030E+00	 4.676E-01	 3.874E-01	-2.653E-02	 1.271E+02
  64.500	-4.289E-02	 6.963E-03	-1.526E-05	-5.930E-01	-2.527E-01	-9.359E-01	 4.959E-01	 3.914E-01	-1.020E-01	 1.343E+02
  64.600	-3.660E-02	 1.030E-02	-7.629E-06	-6.149E-01	-2.267E-01	-8.351E-01	 5.227E-01	 3.587E-01	-1.785E-01	 1.414E+02
  64.700	-2.892E-02	 1.291E-02	-7.629E-06	-6.194E-01	-1.872E-01	-7.530E-01	 5.510E-01	 3.470E-01	-2.361E-01	 1.485E+02
  64.800	-2.007E-02	 1.471E-02	-7.629E-06	-6.343E-01	-1.383E-01	-6.564E-01	 5.614E-01	 3.633E-01	-2.755E-01	 1.557E+02
  64.900	-1.008E-02	 1.576E-02	 0.000E+00	-6.639E-01	-8.084E-02	-5.087E-01	 5.458E-01	 3.761E-01	-2.970E-01	 1.628E+02
  65.000	 9.178E-04	 1.624E-02	 0.000E+00	-7.044E-01	-1.683E-02	-3.309E-01	 5.065E-01	 3.603E-01	-3.082E-01	 1.699E+02
  65.100	 1.255E-02	 1.619E-02	 0.000E+00	-7.522E-01	 4.021E-02	-1.592E-01	 4.439E-01	 3.430E-01	-3.283E-01	 1.770E+02
  65.200	 2.429E-02	 1.545E-02	-7.629E-06	-8.367E-01	 1.010E-01	-7.671E-03	 3.830E-01	 3.318E-01	-3.511E-01	 1.842E+02
  65.300	 3.579E-02	 1.384E-02	-1.526E-05	-9.699E-01	 1.712E-01	 1.343E-01	 3.406E-01	 3.169E-01	-3.722E-01	 1.913E+02
  65.400	 4.670E-02	 1.130E-02	-1.526E-05	-1.116E+00	 2.378E-01	 2.576E-01	 3.082E-01	 2.813E-01	-3.991E-01	 1.984E+02
  65.500	 5.674E-02	 7.831E-03	-2.289E-05	-1.226E+00	 3.034E-01	 3.710E-01	 2.847E-01	 2.180E-01	-4.185E-01	 2.055E+02
  65.600	 6.532E-02	 3.532E-03	-3.052E-05	-1.306E+00	 3.503E-01	 4.888E-01	 2.448E-01	 1.085E-01	-4.403E-01	 2.126E+02
  65.700	 7.188E-02	-1.297E-03	-3.815E-05	-1.376E+00	 3.929E-01	 5.817E-01	 1.943E-01	-2.363E-02	-4.399E-01	 2.198E+02
  65.800	 7.601E-02	-6.411E-03	-4.578E-05	-1.420E+00	 4.251E-01	 6.415E-01	 1.229E-01	-1.602E-01	-4.203E-01	 2.269E+02
  65.900	 7.762E-02	-1.161E-02	-4.578E-05	-1.412E+00	 4.591E-01	 6.739E-01	 4.469E-02	-2.949E-01	-3.743E-01	 2.340E+02
  66.000	 7.659E-02	-1.679E-02	-4.578E-05	-1.352E+00	 4.937E-01	 6.950E-01	-3.255E-02	-4.188E-01	-3.122E-01	 2.411E+02
  66.100	 7.283E-02	-2.189E-02	-4.578E-05	-1.260E+00	 5.188E-01	 7.074E-01	-1.064E-01	-5.157E-01	-2.549E-01	 2.482E+02
  66.200	 6.649E-02	-2.680E-02	-3.815E-05	-1.150E+00	 5.406E-01	 7.095E-01	-1.643E-01	-6.259E-01	-2.078E-01	 2.553E+02
  66.300	 5.797E-02	-3.132E-02	-3.052E-05	-1.015E+00	 5.531E-01	 7.109E-01	-2.056E-01	-7.424E-01	-1.769E-01	 2.624E+02
  66.400	 4.779E-02	-3.512E-02	-3.052E-05	-8.378E-01	 5.464E-01	 7.092E-01	-2.406E-01	-8.159E-01	-1.617E-01	 2.695E+02
  66.500	 3.632E-02	-3.793E-02	-2.289E-05	-6.295E-01	 5.273E-01	 6.924E-01	-2.707E-01	-8.790E-01	-1.369E-01	 2.766E+02
  66.600	 2.390E-02	-3.951E-02	-1.526E-05	-4.127E-01	 5.077E-01	 6.834E-01	-2.942E-01	-9.876E-01	-8.159E-02	 2.837E+02
  66.700	 1.118E-02	-3.961E-02	-1.526E-05	-2.119E-01	 4.830E-01	 6.360E-01	-3.200E-01	-1.096E+00	-2.571E-03	 2.908E+02
  66.800	-8.621E-04	-3.815E-02	-7.629E-06	-5.409E-04	 4.475E-01	 5.444E-01	-3.621E-01	-1.134E+00	 8.059E-02	 2.979E+02
  66.900	-1.151E-02	-3.548E-02	-7.629E-06	 2.214E-01	 3.976E-01	 4.708E-01	-4.126E-01	-1.143E+00	 1.604E-01	 3.050E+02
[...]
 783.300	-2.004E-02	-1.043E-02	-7.629E-06	 7.764E-01	-4.452E-01	-6.708E-01	 1.383E-01	-3.618E-02	 4.201E-01	 7.046E+01
 783.400	-1.329E-02	-6.221E-03	 0.000E+00	 8.141E-01	-4.309E-01	-7.132E-01	 1.912E-01	 1.051E-01	 3.427E-01	 7.751E+01
 783.500	-5.248E-03	-1.884E-03	 0.000E+00	 8.143E-01	-4.170E-01	-7.484E-01	 2.523E-01	 2.711E-01	 2.606E-01	 8.456E+01
 783.600	 3.787E-03	 2.179E-03	 0.000E+00	 7.799E-01	-4.145E-01	-8.010E-01	 3.163E-01	 4.562E-01	 1.874E-01	 9.160E+01
 783.700	 1.356E-02	 5.697E-03	 0.000E+00	 7.247E-01	-4.218E-01	-8.490E-01	 3.803E-01	 6.102E-01	 1.316E-01	 9.865E+01
 783.800	 2.370E-02	 8.483E-03	-7.629E-06	 6.410E-01	-4.329E-01	-8.654E-01	 4.336E-01	 7.034E-01	 9.354E-02	 1.057E+02
 783.900	 3.373E-02	 1.040E-02	-7.629E-06	 5.251E-01	-4.337E-01	-8.473E-01	 4.694E-01	 7.458E-01	 6.645E-02	 1.128E+02
 784.000	 4.321E-02	 1.149E-02	-1.526E-05	 3.907E-01	-4.133E-01	-8.245E-01	 4.910E-01	 7.714E-01	 3.594E-02	 1.198E+02
 784.100	 5.173E-02	 1.190E-02	-2.289E-05	 2.662E-01	-3.738E-01	-8.077E-01	 4.997E-01	 8.135E-01	-1.769E-02	 1.269E+02
 784.200	 5.873E-02	 1.176E-02	-3.052E-05	 1.564E-01	-3.123E-01	-7.652E-01	 5.008E-01	 8.610E-01	-9.087E-02	 1.339E+02
 784.300	 6.385E-02	 1.102E-02	-3.052E-05	 6.833E-02	-2.338E-01	-6.641E-01	 5.069E-01	 8.814E-01	-1.670E-01	 1.410E+02
 784.400	 6.690E-02	 9.557E-03	-3.815E-05	-5.474E-03	-1.581E-01	-5.094E-01	 5.130E-01	 8.923E-01	-2.446E-01	 1.480E+02
 784.500	 6.788E-02	 7.254E-03	-3.815E-05	-5.710E-02	-9.328E-02	-3.388E-01	 5.229E-01	 9.268E-01	-3.064E-01	 1.551E+02
 784.600	 6.695E-02	 4.145E-03	-3.052E-05	-8.944E-02	-5.169E-02	-1.581E-01	 5.266E-01	 9.644E-01	-3.487E-01	 1.621E+02
 784.700	 6.450E-02	 4.879E-04	-3.052E-05	-1.209E-01	-2.156E-02	 3.201E-02	 5.170E-01	 9.806E-01	-3.690E-01	 1.692E+02
 784.800	 6.098E-02	-3.359E-03	-3.052E-05	-1.570E-01	 7.663E-03	 2.465E-01	 4.861E-01	 9.806E-01	-3.776E-01	 1.762E+02
 784.900	 5.663E-02	-7.102E-03	-2.289E-05	-2.134E-01	 4.825E-02	 4.519E-01	 4.304E-01	 9.603E-01	-3.830E-01	 1.833E+02
 785.000	 5.182E-02	-1.050E-02	-2.289E-05	-2.707E-01	 1.207E-01	 6.140E-01	 3.724E-01	 9.026E-01	-3.819E-01	 1.904E+02
 785.100	 4.690E-02	-1.349E-02	-1.526E-05	-3.050E-01	 2.051E-01	 7.153E-01	 3.042E-01	 8.122E-01	-3.988E-01	 1.975E+02
 785.200	 4.210E-02	-1.617E-02	-1.526E-05	-3.313E-01	 2.950E-01	 7.628E-01	 2.421E-01	 7.018E-01	-4.198E-01	 2.045E+02
 785.300	 3.760E-02	-1.868E-02	-1.526E-05	-3.654E-01	 3.707E-01	 8.000E-01	 1.936E-01	 5.744E-01	-4.375E-01	 2.116E+02
 785.400	 3.342E-02	-2.101E-02	-1.526E-05	-3.889E-01	 4.136E-01	 8.395E-01	 1.469E-01	 4.849E-01	-4.513E-01	 2.188E+02
 785.500	 2.948E-02	-2.291E-02	-7.629E-06	-3.941E-01	 4.354E-01	 8.571E-01	 1.083E-01	 4.220E-01	-4.410E-01	 2.259E+02
 785.600	 2.575E-02	-2.421E-02	-7.629E-06	-3.874E-01	 4.406E-01	 8.562E-01	 6.988E-02	 3.632E-01	-4.053E-01	 2.330E+02
 785.700	 2.253E-02	-2.468E-02	-7.629E-06	-3.591E-01	 4.444E-01	 8.623E-01	 2.623E-02	 3.063E-01	-3.496E-01	 2.401E+02
 785.800	 2.022E-02	-2.424E-02	-7.629E-06	-3.048E-01	 4.550E-01	 9.129E-01	-3.670E-02	 2.278E-01	-2.923E-01	 2.472E+02
 785.900	 1.888E-02	-2.303E-02	-7.629E-06	-2.389E-01	 4.732E-01	 9.700E-01	-1.178E-01	 1.518E-01	-2.455E-01	 2.544E+02
 786.000	 1.830E-02	-2.126E-02	-7.629E-06	-1.690E-01	 5.038E-01	 1.004E+00	-1.963E-01	 7.254E-02	-2.042E-01	 2.615E+02
 786.100	 1.854E-02	-1.915E-02	-7.629E-06	-8.828E-02	 5.376E-01	 1.022E+00	-2.628E-01	-3.429E-02	-1.648E-01	 2.687E+02
 786.200	 1.973E-02	-1.679E-02	-7.629E-06	 1.572E-02	 5.543E-01	 1.031E+00	-3.153E-01	-1.397E-01	-1.285E-01	 2.758E+02
 786.300	 2.179E-02	-1.413E-02	-7.629E-06	 1.255E-01	 5.461E-01	 1.019E+00	-3.463E-01	-2.242E-01	-8.660E-02	 2.830E+02
 786.400	 2.460E-02	-1.107E-02	-7.629E-06	 2.252E-01	 5.101E-01	 9.747E-01	-3.628E-01	-2.913E-01	-3.388E-02	 2.901E+02
 786.500	 2.791E-02	-7.614E-03	-7.629E-06	 3.112E-01	 4.468E-01	 8.671E-01	-3.738E-01	-3.465E-01	 3.163E-02	 2.973E+02
 786.600	 3.147E-02	-3.945E-03	-7.629E-06	 4.068E-01	 3.741E-01	 7.430E-01	-3.819E-01	-4.058E-01	 1.093E-01	 3.045E+02
 786.700	 3.510E-02	-3.847E-04	-7.629E-06	 4.757E-01	 3.097E-01	 6.395E-01	-3.918E-01	-4.598E-01	 1.889E-01	 3.117E+02
 786.800	 3.876E-02	 2.780E-03	-7.629E-06	 5.155E-01	 2.685E-01	 5.590E-01	-4.040E-01	-4.817E-01	 2.608E-01	 3.188E+02
 786.900	 4.224E-02	 5.345E-03	-1.526E-05	 5.929E-01	 2.426E-01	 5.047E-01	-4.214E-01	-4.718E-01	 3.095E-01	 3.260E+02
 787.000	 4.529E-02	 7.192E-03	-1.526E-05	 6.831E-01	 2.248E-01	 4.753E-01	-4.324E-01	-4.520E-01	 3.365E-01	 3.332E+02
 787.100	 4.783E-02	 8.393E-03	-1.526E-05	 7.591E-01	 2.029E-01	 4.765E-01	-4.334E-01	-4.333E-01	 3.554E-01	 3.404E+02
 787.200	 5.012E-02	 9.046E-03	-2.289E-05	 8.326E-01	 1.589E-01	 5.044E-01	-4.207E-01	-4.140E-01	 3.817E-01	 3.476E+02
 787.300	 5.229E-02	 9.214E-03	-2.289E-05	 9.263E-01	 8.963E-02	 5.283E-01	-3.922E-01	-3.763E-01	 4.201E-01	 3.548E+02
 787.400	 5.450E-02	 8.828E-03	-2.289E-05	 1.038E+00	 5.550E-03	 4.984E-01	-3.453E-01	-3.080E-01	 4.710E-01	 2.007E+00
 787.500	 5.676E-02	 7.754E-03	-2.289E-05	 1.144E+00	-9.147E-02	 4.183E-01	-2.956E-01	-2.218E-01	 5.190E-01	 9.225E+00
 787.600	 5.897E-02	 5.867E-03	-3.052E-05	 1.212E+00	-1.817E-01	 3.025E-01	-2.466E-01	-1.548E-01	 5.561E-01	 1.645E+01
 787.700	 6.095E-02	 3.129E-03	-3.052E-05	 1.242E+00	-2.484E-01	 1.568E-01	-2.016E-01	-1.313E-01	 5.711E-01	 2.369E+01
 787.800	 6.262E-02	-3.433E-04	-3.052E-05	 1.244E+00	-2.900E-01	 1.252E-03	-1.595E-01	-9.683E-02	 5.590E-01	 3.093E+01
 787.900	 6.355E-02	-4.273E-03	-3.052E-05	 1.198E+00	-3.157E-01	-1.494E-01	-1.145E-01	-5.022E-02	 5.222E-01	 3.817E+01
 788.000	 6.322E-02	-8.320E-03	-3.052E-05	 1.087E+00	-3.237E-01	-3.037E-01	-5.327E-02	-7.075E-03	 4.817E-01	 4.543E+01
 788.100	 6.138E-02	-1.220E-02	-3.052E-05	 9.243E-01	-3.315E-01	-4.227E-01	 1.443E-02	 5.372E-02	 4.408E-01	 5.269E+01
 788.200	 5.818E-02	-1.565E-02	-3.052E-05	 7.418E-01	-3.548E-01	-4.732E-01	 8.129E-02	 1.635E-01	 4.053E-01	 5.995E+01
 788.300	 5.372E-02	-1.863E-02	-2.289E-05	 5.948E-01	-3.920E-01	-4.705E-01	 1.432E-01	 3.103E-01	 3.726E-01	 6.721E+01
 788.400	 4.804E-02	-2.116E-02	-2.289E-05	 5.015E-01	-4.294E-01	-4.451E-01	 1.977E-01	 4.626E-01	 3.439E-01	 7.447E+01
 788.500	 4.149E-02	-2.314E-02	-1.526E-05	 4.345E-01	-4.516E-01	-4.295E-01	 2.532E-01	 5.914E-01	 3.155E-01	 8.173E+01
 788.600	 3.458E-02	-2.439E-02	-1.526E-05	 3.865E-01	-4.561E-01	-4.264E-01	 3.048E-01	 6.925E-01	 2.712E-01	 8.900E+01
 788.700	 2.777E-02	-2.476E-02	-7.629E-06	 3.580E-01	-4.369E-01	-4.016E-01	 3.491E-01	 7.577E-01	 2.132E-01	 9.628E+01
 788.800	 2.140E-02	-2.420E-02	-7.629E-06	 3.286E-01	-4.019E-01	-3.377E-01	 3.846E-01	 7.966E-01	 1.421E-01	 1.036E+02
 788.900	 1.572E-02	-2.281E-02	-7.629E-06	 2.798E-01	-3.670E-01	-2.709E-01	 4.170E-01	 8.128E-01	 5.938E-02	 1.108E+02
 789.000	 1.070E-02	-2.081E-02	-7.629E-06	 2.326E-01	-3.352E-01	-2.544E-01	 4.525E-01	 8.030E-01	-1.848E-02	 1.181E+02
 789.100	 6.540E-03	-1.839E-02	 0.000E+00	 1.633E-01	-3.018E-01	-2.512E-01	 4.917E-01	 7.972E-01	-7.417E-02	 1.254E+02
 789.200	 3.696E-03	-1.565E-02	 0.000E+00	 7.148E-02	-2.747E-01	-1.896E-01	 5.203E-01	 8.017E-01	-1.181E-01	 1.327E+02
 789.300	 2.244E-03	-1.257E-02	 0.000E+00	-3.417E-02	-2.488E-01	-8.002E-02	 5.288E-01	 7.949E-01	-1.575E-01	 1.400E+02
 789.400	 1.973E-03	-9.124E-03	 0.000E+00	-1.332E-01	-2.113E-01	 1.561E-02	 5.250E-01	 7.819E-01	-1.884E-01	 1.474E+02
 789.500	 2.917E-03	-5.368E-03	 0.000E+00	-2.100E-01	-1.615E-01	 7.814E-02	 5.085E-01	 7.655E-01	-2.269E-01	 1.547E+02
 789.600	 5.160E-03	-1.410E-03	 0.000E+00	-3.016E-01	-9.529E-02	 1.417E-01	 4.828E-01	 7.549E-01	-2.789E-01	 1.620E+02
 789.700	 8.616E-03	 2.515E-03	 0.000E+00	-3.798E-01	-1.535E-02	 2.243E-01	 4.566E-01	 7.511E-01	-3.321E-01	 1.693E+02
 789.800	 1.298E-02	 6.045E-03	 0.000E+00	-4.604E-01	 6.218E-02	 3.182E-01	 4.236E-01	 7.186E-01	-3.862E-01	 1.766E+02
 789.900	 1.793E-02	 9.000E-03	 0.000E+00	-5.428E-01	 1.413E-01	 4.017E-01	 3.987E-01	 6.619E-01	-4.222E-01	 1.840E+02
 790.000	 2.300E-02	 1.123E-02	-7.629E-06	-5.988E-01	 1.940E-01	 4.441E-01	 3.624E-01	 5.796E-01	-4.491E-01	 1.913E+02
 790.100	 2.782E-02	 1.271E-02	-7.629E-06	-6.329E-01	 2.289E-01	 4.392E-01	 3.238E-01	 4.801E-01	-4.539E-01	 1.986E+02
 790.200	 3.221E-02	 1.340E-02	-7.629E-06	-6.699E-01	 2.625E-01	 4.047E-01	 2.864E-01	 4.007E-01	-4.354E-01	 2.060E+02
 790.300	 3.592E-02	 1.335E-02	-7.629E-06	-7.210E-01	 2.900E-01	 3.745E-01	 2.319E-01	 3.529E-01	-4.165E-01	 2.133E+02
 790.400	 3.854E-02	 1.266E-02	-1.526E-05	-7.693E-01	 3.298E-01	 3.738E-01	 1.763E-01	 3.027E-01	-3.920E-01	 2.206E+02
 790.500	 3.973E-02	 1.134E-02	-1.526E-05	-7.989E-01	 3.769E-01	 3.617E-01	 1.150E-01	 2.279E-01	-3.797E-01	 2.279E+02
 790.600	 3.922E-02	 9.383E-03	-1.526E-05	-8.086E-01	 4.316E-01	 3.188E-01	 5.174E-02	 1.295E-01	-3.752E-01	 2.352E+02
 790.700	 3.686E-02	 6.781E-03	-7.629E-06	-7.973E-01	 4.881E-01	 2.915E-01	-6.792E-03	 6.687E-03	-3.730E-01	 2.425E+02
 790.800	 3.258E-02	 3.554E-03	-7.629E-06	-7.852E-01	 5.272E-01	 3.356E-01	-6.950E-02	-1.376E-01	-3.627E-01	 2.499E+02
 790.900	 2.647E-02	-1.982E-05	-7.629E-06	-7.648E-01	 5.538E-01	 4.239E-01	-1.250E-01	-2.996E-01	-3.210E-01	 2.572E+02
 791.000	 1.876E-02	-3.596E-03	 0.000E+00	-6.997E-01	 5.511E-01	 5.362E-01	-1.856E-01	-4.569E-01	-2.566E-01	 2.644E+02
 791.100	 9.766E-03	-6.984E-03	 0.000E+00	-5.980E-01	 5.200E-01	 6.179E-01	-2.496E-01	-5.587E-01	-1.749E-01	 2.717E+02
 791.200	-6.928E-05	-1.016E-02	 0.000E+00	-4.874E-01	 4.828E-01	 6.766E-01	-3.088E-01	-6.413E-01	-8.302E-02	 2.790E+02
 791.300	-1.008E-02	-1.325E-02	 0.000E+00	-3.914E-01	 4.510E-01	 7.183E-01	-3.585E-01	-7.102E-01	 5.004E-03	 2.863E+02
 791.400	-1.962E-02	-1.625E-02	-7.629E-06	-2.869E-01	 4.299E-01	 7.368E-01	-4.014E-01	-7.528E-01	 6.757E-02	 2.936E+02
 791.500	-2.817E-02	-1.909E-02	-7.629E-06	-1.599E-01	 4.209E-01	 7.239E-01	-4.312E-01	-7.994E-01	 1.083E-01	 3.008E+02
 791.600	-3.526E-02	-2.158E-02	-1.526E-05	-1.745E-02	 4.140E-01	 6.935E-01	-4.444E-01	-8.864E-01	 1.350E-01	 3.081E+02
 791.700	-4.054E-02	-2.336E-02	-1.526E-05	 1.186E-01	 3.911E-01	 6.545E-01	-4.491E-01	-9.845E-01	 1.560E-01	 3.154E+02
 791.800	-4.369E-02	-2.417E-02	-1.526E-05	 2.293E-01	 3.393E-01	 5.904E-01	-4.493E-01	-1.065E+00	 1.917E-01	 3.226E+02
 791.900	-4.473E-02	-2.396E-02	-1.526E-05	 2.957E-01	 2.622E-01	 5.031E-01	-4.494E-01	-1.120E+00	 2.550E-01	 3.299E+02
 792.000	-4.388E-02	-2.297E-02	-1.526E-05	 3.469E-01	 1.735E-01	 3.882E-01	-4.415E-01	-1.165E+00	 3.457E-01	 3.371E+02
 792.100	-4.134E-02	-2.142E-02	-1.526E-05	 4.146E-01	 8.174E-02	 2.519E-01	-4.322E-01	-1.198E+00	 4.385E-01	 3.444E+02
 792.200	-3.724E-02	-1.953E-02	-1.526E-05	 4.998E-01	 1.514E-03	 9.690E-02	-4.159E-01	-1.195E+00	 5.103E-01	 3.516E+02
 792.300	-3.193E-02	-1.742E-02	-7.629E-06	 5.531E-01	-5.523E-02	-4.111E-02	-3.901E-01	-1.140E+00	 5.406E-01	 3.589E+02
 792.400	-2.573E-02	-1.510E-02	-7.629E-06	 5.856E-01	-8.955E-02	-1.713E-01	-3.520E-01	-1.059E+00	 5.297E-01	 6.125E+00
 792.500	-1.881E-02	-1.249E-02	 0.000E+00	 6.067E-01	-1.096E-01	-3.120E-01	-2.993E-01	-9.943E-01	 4.996E-01	 1.336E+01
 792.600	-1.130E-02	-9.589E-03	 0.000E+00	 6.321E-01	-1.338E-01	-4.324E-01	-2.414E-01	-9.320E-01	 4.712E-01	 2.059E+01
 792.700	-3.574E-03	-6.394E-03	 0.000E+00	 6.616E-01	-1.780E-01	-5.392E-01	-1.855E-01	-8.377E-01	 4.559E-01	 2.781E+01
 792.800	 3.916E-03	-3.081E-03	 0.000E+00	 6.984E-01	-2.404E-01	-6.579E-01	-1.278E-01	-7.023E-01	 4.641E-01	 3.503E+01
 792.900	 1.090E-02	 3.321E-05	 0.000E+00	 7.409E-01	-3.153E-01	-7.889E-01	-7.175E-02	-5.574E-01	 4.878E-01	 4.223E+01
 793.000	 1.736E-02	 2.731E-03	 0.000E+00	 7.673E-01	-3.852E-01	-9.065E-01	-1.756E-02	-4.333E-01	 5.114E-01	 4.944E+01
 793.100	 2.325E-02	 4.923E-03	-7.629E-06	 7.876E-01	-4.417E-01	-9.923E-01	 2.994E-02	-3.017E-01	 5.129E-01	 5.664E+01
 793.200	 2.826E-02	 6.579E-03	-7.629E-06	 8.017E-01	-4.750E-01	-1.067E+00	 7.788E-02	-1.794E-01	 4.821E-01	 6.383E+01
 793.300	 3.201E-02	 7.716E-03	-7.629E-06	 8.051E-01	-4.756E-01	-1.177E+00	 1.387E-01	-5.916E-02	 4.236E-01	 7.102E+01
 793.400	 3.429E-02	 8.399E-03	-7.629E-06	 7.741E-01	-4.579E-01	-1.304E+00	 2.057E-01	 5.424E-02	 3.417E-01	 7.820E+01
 793.500	 3.522E-02	 8.511E-03	-7.629E-06	 7.038E-01	-4.328E-01	-1.387E+00	 2.768E-01	 2.055E-01	 2.504E-01	 8.539E+01
 793.600	 3.474E-02	 7.846E-03	-7.629E-06	 5.963E-01	-4.216E-01	-1.407E+00	 3.386E-01	 4.032E-01	 1.611E-01	 9.256E+01
 793.700	 3.265E-02	 6.229E-03	-7.629E-06	 4.547E-01	-4.177E-01	-1.390E+00	 3.960E-01	 5.941E-01	 9.646E-02	 9.972E+01
 793.800	 2.889E-02	 3.644E-03	-7.629E-06	 3.084E-01	-4.229E-01	-1.363E+00	 4.411E-01	 7.371E-01	 5.352E-02	 1.069E+02
 793.900	 2.379E-02	 3.108E-04	-7.629E-06	 1.815E-01	-4.211E-01	-1.313E+00	 4.758E-01	 8.371E-01	 2.555E-02	 1.140E+02
 794.000	 1.773E-02	-3.427E-03	 0.000E+00	 6.689E-02	-4.012E-01	-1.204E+00	 4.930E-01	 8.637E-01	-2.950E-03	 1.212E+02
 794.100	 1.110E-02	-7.216E-03	 0.000E+00	-5.044E-02	-3.585E-01	-1.037E+00	 4.987E-01	 8.245E-01	-4.319E-02	 1.283E+02
 794.200	 4.209E-03	-1.082E-02	 0.000E+00	-1.362E-01	-2.981E-01	-8.610E-01	 5.026E-01	 7.768E-01	-1.055E-01	 1.355E+02
 794.300	-2.921E-03	-1.408E-02	 0.000E+00	-1.889E-01	-2.314E-01	-7.092E-01	 5.071E-01	 7.484E-01	-1.870E-01	 1.426E+02
 794.400	-9.989E-03	-1.692E-02	 0.000E+00	-2.275E-01	-1.594E-01	-5.581E-01	 5.190E-01	 7.604E-01	-2.643E-01	 1.498E+02
 794.500	-1.622E-02	-1.945E-02	-7.629E-06	-2.823E-01	-9.266E-02	-3.615E-01	 5.263E-01	 8.083E-01	-3.280E-01	 1.569E+02
 794.600	-2.092E-02	-2.166E-02	-7.629E-06	-3.641E-01	-3.771E-02	-1.285E-01	 5.188E-01	 8.626E-01	-3.700E-01	 1.640E+02
 794.700	-2.359E-02	-2.337E-02	-7.629E-06	-4.371E-01	 8.001E-03	 6.074E-02	 4.958E-01	 9.447E-01	-3.891E-01	 1.712E+02
 794.800	-2.391E-02	-2.442E-02	-7.629E-06	-4.995E-01	 4.530E-02	 1.836E-01	 4.525E-01	 1.002E+00	-4.027E-01	 1.783E+02
 794.900	-2.187E-02	-2.463E-02	-7.629E-06	-5.896E-01	 9.306E-02	 2.550E-01	 4.010E-01	 1.001E+00	-4.101E-01	 1.854E+02
 795.000	-1.762E-02	-2.403E-02	-7.629E-06	-7.030E-01	 1.540E-01	 3.271E-01	 3.450E-01	 9.365E-01	-4.176E-01	 1.926E+02
 795.100	-1.140E-02	-2.274E-02	-7.629E-06	-8.114E-01	 2.244E-01	 4.041E-01	 2.871E-01	 8.353E-01	-4.340E-01	 1.997E+02
 795.200	-3.769E-03	-2.090E-02	 0.000E+00	-9.086E-01	 3.038E-01	 4.527E-01	 2.372E-01	 7.233E-01	-4.511E-01	 2.069E+02
 795.300	 4.659E-03	-1.869E-02	 0.000E+00	-9.853E-01	 3.743E-01	 4.502E-01	 1.958E-01	 6.088E-01	-4.623E-01	 2.141E+02
 795.400	 1.352E-02	-1.623E-02	 0.000E+00	-1.011E+00	 4.242E-01	 4.561E-01	 1.580E-01	 5.107E-01	-4.621E-01	 2.212E+02
 795.500	 2.251E-02	-1.361E-02	-7.629E-06	-9.941E-01	 4.494E-01	 5.297E-01	 1.079E-01	 4.345E-01	-4.467E-01	 2.284E+02
 795.600	 3.101E-02	-1.082E-02	-7.629E-06	-9.655E-01	 4.589E-01	 6.604E-01	 4.657E-02	 3.783E-01	-4.148E-01	 2.355E+02
 795.700	 3.861E-02	-7.865E-03	-1.526E-05	-9.237E-01	 4.709E-01	 8.135E-01	-1.614E-02	 3.470E-01	-3.604E-01	 2.427E+02
 795.800	 4.528E-02	-4.884E-03	-1.526E-05	-8.305E-01	 4.880E-01	 9.530E-01	-8.404E-02	 3.063E-01	-2.973E-01	 2.498E+02
 795.900	 5.121E-02	-2.114E-03	-2.289E-05	-7.064E-01	 5.131E-01	 1.079E+00	-1.530E-01	 2.249E-01	-2.376E-01	 2.570E+02
 796.000	 5.649E-02	 1.875E-04	-2.289E-05	-6.080E-01	 5.379E-01	 1.194E+00	-2.190E-01	 1.564E-01	-1.897E-01	 2.641E+02
 796.100	 6.107E-02	 1.870E-03	-3.052E-05	-5.185E-01	 5.533E-01	 1.267E+00	-2.836E-01	 7.498E-02	-1.600E-01	 2.713E+02
 796.200	 6.451E-02	 2.905E-03	-3.052E-05	-4.116E-01	 5.567E-01	 1.286E+00	-3.340E-01	-5.634E-02	-1.277E-01	 2.785E+02
 796.300	 6.638E-02	 3.380E-03	-3.052E-05	-2.880E-01	 5.428E-01	 1.282E+00	-3.673E-01	-2.313E-01	-8.422E-02	 2.856E+02
 796.400	 6.671E-02	 3.454E-03	-3.052E-05	-1.497E-01	 5.136E-01	 1.238E+00	-3.858E-01	-3.893E-01	-2.135E-02	 2.928E+02
 796.500	 6.572E-02	 3.205E-03	-3.052E-05	-1.608E-02	 4.639E-01	 1.176E+00	-4.034E-01	-5.125E-01	 5.750E-02	 3.000E+02
 796.600	 6.339E-02	 2.593E-03	-3.052E-05	 1.311E-01	 3.994E-01	 1.119E+00	-4.227E-01	-6.284E-01	 1.426E-01	 3.072E+02
 796.700	 5.966E-02	 1.507E-03	-3.052E-05	 2.818E-01	 3.329E-01	 1.046E+00	-4.412E-01	-7.410E-01	 2.205E-01	 3.143E+02
 796.800	 5.464E-02	-1.383E-04	-2.289E-05	 4.267E-01	 2.727E-01	 9.626E-01	-4.606E-01	-8.408E-01	 2.839E-01	 3.215E+02
 796.900	 4.861E-02	-2.389E-03	-1.526E-05	 5.442E-01	 2.295E-01	 8.889E-01	-4.685E-01	-9.219E-01	 3.373E-01	 3.287E+02
 797.000	 4.182E-02	-5.169E-03	-1.526E-05	 6.555E-01	 1.946E-01	 8.094E-01	-4.645E-01	-9.777E-01	 3.725E-01	 3.359E+02
 797.100	 3.472E-02	-8.280E-03	-7.629E-06	 7.809E-01	 1.599E-01	 7.125E-01	-4.457E-01	-1.016E+00	 4.022E-01	 3.431E+02
 797.200	 2.771E-02	-1.152E-02	-7.629E-06	 9.248E-01	 1.026E-01	 5.965E-01	-4.201E-01	-1.049E+00	 4.309E-01	 3.503E+02
 797.300	 2.082E-02	-1.466E-02	-7.629E-06	 1.055E+00	 2.239E-02	 4.778E-01	-3.892E-01	-1.068E+00	 4.605E-01	 3.574E+02
 797.400	 1.424E-02	-1.762E-02	-7.629E-06	 1.147E+00	-6.394E-02	 3.536E-01	-3.441E-01	-1.049E+00	 4.993E-01	 4.644E+00
 797.500	 8.443E-03	-2.045E-02	-7.629E-06	 1.221E+00	-1.547E-01	 2.291E-01	-2.945E-01	-9.877E-01	 5.391E-01	 1.184E+01
 797.600	 3.701E-03	-2.318E-02	-7.629E-06	 1.269E+00	-2.318E-01	 1.306E-01	-2.405E-01	-9.078E-01	 5.743E-01	 1.904E+01
 797.700	 8.968E-05	-2.575E-02	-7.629E-06	 1.296E+00	-2.855E-01	 5.048E-02	-1.880E-01	-8.234E-01	 5.913E-01	 2.625E+01
 797.800	-2.129E-03	-2.801E-02	-7.629E-06	 1.336E+00	-3.240E-01	-1.820E-02	-1.401E-01	-7.194E-01	 5.831E-01	 3.346E+01
 797.900	-2.829E-03	-2.971E-02	-7.629E-06	 1.384E+00	-3.524E-01	-1.066E-01	-9.080E-02	-5.956E-01	 5.510E-01	 4.067E+01
 798.000	-1.974E-03	-3.064E-02	-7.629E-06	 1.439E+00	-3.702E-01	-2.157E-01	-3.678E-02	-4.387E-01	 5.084E-01	 4.788E+01
 798.100	 6.574E-04	-3.066E-02	-7.629E-06	 1.483E+00	-3.890E-01	-3.022E-01	 2.381E-02	-2.659E-01	 4.650E-01	 5.511E+01
 798.200	 5.239E-03	-2.976E-02	-7.629E-06	 1.470E+00	-4.152E-01	-3.568E-01	 9.636E-02	-6.632E-02	 4.287E-01	 6.234E+01
 798.300	 1.155E-02	-2.813E-02	-7.629E-06	 1.429E+00	-4.502E-01	-4.275E-01	 1.715E-01	 1.483E-01	 3.929E-01	 6.958E+01
 798.400	 1.935E-02	-2.592E-02	-7.629E-06	 1.371E+00	-4.792E-01	-5.477E-01	 2.449E-01	 3.624E-01	 3.566E-01	 7.683E+01
 798.500	 2.863E-02	-2.319E-02	-7.629E-06	 1.270E+00	-4.974E-01	-6.521E-01	 3.092E-01	 5.635E-01	 3.125E-01	 8.409E+01
 798.600	 3.900E-02	-1.991E-02	-1.526E-05	 1.127E+00	-5.034E-01	-6.751E-01	 3.531E-01	 7.269E-01	 2.464E-01	 9.135E+01
 798.700	 4.960E-02	-1.625E-02	-2.289E-05	 9.594E-01	-4.782E-01	-6.699E-01	 3.890E-01	 8.022E-01	 1.769E-01	 9.862E+01
 798.800	 5.983E-02	-1.245E-02	-3.052E-05	 7.757E-01	-4.222E-01	-7.009E-01	 4.275E-01	 8.193E-01	 1.124E-01	 1.059E+02
 798.900	 6.948E-02	-8.654E-03	-3.815E-05	 6.067E-01	-3.606E-01	-7.254E-01	 4.637E-01	 8.694E-01	 4.200E-02	 1.132E+02
 799.000	 7.809E-02	-4.981E-03	-4.578E-05	 4.602E-01	-3.129E-01	-6.824E-01	 4.856E-01	 9.649E-01	-3.401E-02	 1.205E+02
 799.100	 8.492E-02	-1.627E-03	-5.341E-05	 3.350E-01	-2.801E-01	-5.805E-01	 4.988E-01	 1.049E+00	-9.747E-02	 1.278E+02
 799.200	 8.970E-02	 1.185E-03	-6.104E-05	 2.289E-01	-2.518E-01	-4.710E-01	 5.168E-01	 1.110E+00	-1.427E-01	 1.351E+02
 799.300	 9.252E-02	 3.361E-03	-6.866E-05	 1.451E-01	-2.269E-01	-3.845E-01	 5.327E-01	 1.173E+00	-1.833E-01	 1.424E+02
 799.400	 9.354E-02	 4.890E-03	-6.866E-05	 7.619E-02	-1.930E-01	-3.024E-01	 5.442E-01	 1.259E+00	-2.195E-01	 1.497E+02
 799.500	 9.287E-02	 5.773E-03	-6.866E-05	-4.253E-04	-1.456E-01	-2.150E-01	 5.425E-01	 1.338E+00	-2.640E-01	 1.570E+02
 799.600	 9.050E-02	 6.104E-03	-6.104E-05	-1.110E-01	-7.669E-02	-1.258E-01	 5.301E-01	 1.380E+00	-3.174E-01	 1.643E+02
 799.700	 8.629E-02	 5.905E-03	-5.341E-05	-2.173E-01	 7.745E-04	-2.870E-02	 5.023E-01	 1.376E+00	-3.776E-01	 1.717E+02
 799.800	 8.030E-02	 5.077E-03	-4.578E-05	-2.999E-01	 7.708E-02	 7.505E-02	 4.635E-01	 1.338E+00	-4.355E-01	 1.790E+02
 799.900	 7.285E-02	 3.516E-03	-3.815E-05	-3.808E-01	 1.602E-01	 1.982E-01	 4.272E-01	 1.267E+00	-4.697E-01	 1.863E+02
 800.000	 6.429E-02	 1.254E-03	-3.052E-05	-4.679E-01	 2.311E-01	 3.604E-01	 3.823E-01	 1.208E+00	-4.833E-01	 1.937E+02
